
Build Time: May 28 2021 13:54:56 EDT 
Executable Path: C:/PROGRA~1/ANSYSI~1/v212/fluent/ntbin/win64/fluent.exe

--------------------------------------------------------------------------------
ID    Hostname         Core  O.S.         PID   Vendor                          
--------------------------------------------------------------------------------
n0*   STI-WIN10-ax006  1/3  Windows-x64  8692  Intel(R) Xeon(R) Gold 6248R     
host  STI-WIN10-ax006       Windows-x64  988   Intel(R) Xeon(R) Gold 6248R     

MPI Option Selected: intel
Selected system interconnect: default
--------------------------------------------------------------------------------

Cortex Process ID: 10904 
License Server Path: 1055@siclic1.epfl.ch 
Reading "C:\Users\mmartini\Desktop\Assignment2\GeometryLAST\Bench_files\dp4\SYS\MECH\SYS.1.msh"...
Buffering for file scan...

    4622 nodes, binary.
     366 nodes, binary.
   13198 2D interior faces, zone  1, binary.
      34 2D velocity-inlet faces, zone  5, binary.
      45 2D pressure-outlet faces, zone  6, binary.
      81 2D wall faces, zone  7, binary.
      42 2D wall faces, zone  8, binary.
      46 2D wall faces, zone  9, binary.
      47 2D wall faces, zone 10, binary.
      34 2D wall faces, zone 11, binary.
      35 2D wall faces, zone 12, binary.
       1 2D wall faces, zone 13, binary.
       1 2D wall faces, zone 14, binary.
    8575 mixed cells, zone  2, binary.



Following contexts active in the case file have been de-activated because of their current context control conditions:
"coupled-pseudo-transient"

Building...
     mesh
     materials,
     interface,
     domains,
	mixture
     zones,
	flapte
	mainte
	flaplower
	flapupper
	mainlower
	mainupper
	wall
	belt_ground
	outlet
	inlet
	surface_body
	interior-surface_bodySetting surface_body (mixture) ... Done.
 Setting zone id of surface_body to 2.
 Setting zone id of interior-surface_body to 1.
 Setting zone id of inlet to 5.
 Setting zone id of outlet to 6.
 Setting zone id of belt_ground to 7.
 Setting zone id of wall to 8.
 Setting zone id of mainupper to 9.
 Setting zone id of mainlower to 10.
 Setting zone id of flapupper to 11.
 Setting zone id of flaplower to 12.
 Setting zone id of mainte to 13.
 Setting zone id of flapte to 14.
Done.
Setting surface_body (mixture) ... Done.
Setting interior-surface_body (mixture) ... Done.
Setting inlet (mixture) ... Done.
Setting outlet (mixture) ... Done.
Setting belt_ground (mixture) ... Done.
Setting wall (mixture) ... Done.
Setting mainupper (mixture) ... Done.
Setting mainlower (mixture) ... Done.
Setting flapupper (mixture) ... Done.
Setting flaplower (mixture) ... Done.
Setting mainte (mixture) ... Done.
Setting flapte (mixture) ... Done.

     parallel,
Done.

Preparing mesh for display...
Done.
"Updating Setup cell..."
"Updating Solution cell..."
Reading C:\\Users\\mmartini\\Desktop\\Assignment2\\GeometryLAST\\Bench_files\\dp4\\FLU\\Fluent\\SYS.ip...
Reading IP data ...
	x-coord
	y-coord
	pressure
	x-velocity
	y-velocity
	nut
  Done.
  Initializing values...
  Done.
Fast-loading "C:\PROGRA~1\ANSYSI~1\v212\fluent\fluent21.2.0\\addons\afd\lib\hdfio.bin"
Done.

Writing to STI-WIN10-ax006:"C:\Users\mmartini\Desktop\Assignment2\GeometryLAST\Bench_files\dp4\FLU\Fluent\SYS.1-Setup-Output.cas.h5" in NODE0 mode and compression level 1 ...
  Writing mesh ...
        8575 cells,     1 zone  ...
       13564 faces,    11 zones ...
        4988 nodes,     1 zone  ...
  Done.
Done.
Overwriting "C:\Users\mmartini\Desktop\Assignment2\GeometryLAST\Bench_files\dp4\FLU\Fluent\.\\report-lift-rfile.out"  of Report File "report-lift-rfile"
Overwriting "C:\Users\mmartini\Desktop\Assignment2\GeometryLAST\Bench_files\dp4\FLU\Fluent\.\\report-drag-rfile.out"  of Report File "report-drag-rfile"

  iter  continuity  x-velocity  y-velocity         nut     time/iter
     1  1.0000e+00  5.7069e-03  3.0733e-03  6.5731e-02  0:00:00 1499
     2  1.0000e+00  5.2621e-03  3.8863e-03  1.4491e-02  0:24:58 1498
     3  7.0594e-01  2.6863e-03  2.6788e-03  7.4117e-03  0:19:58 1497
     4  5.3752e-01  1.9276e-03  1.7416e-03  6.1907e-03  0:15:57 1496
     5  4.1474e-01  1.4467e-03  1.4089e-03  5.7276e-03  0:12:45 1495
     6  3.7221e-01  1.2039e-03  1.2112e-03  5.4680e-03  0:10:12 1494
     7  3.1276e-01  1.1121e-03  1.0743e-03  5.2845e-03  0:08:09 1493
     8  2.8912e-01  1.0928e-03  1.0221e-03  5.1794e-03  0:06:31 1492
     9  2.8276e-01  1.0889e-03  1.0553e-03  5.1539e-03  0:05:13 1491
    10  2.6329e-01  1.1091e-03  1.0318e-03  5.1935e-03  0:04:10 1490
    11  2.4977e-01  1.1125e-03  1.0095e-03  5.2063e-03  0:03:20 1489

  iter  continuity  x-velocity  y-velocity         nut     time/iter
    12  2.4024e-01  1.1543e-03  9.9753e-04  5.2793e-03  0:02:40 1488
    13  2.4174e-01  1.1525e-03  9.7938e-04  5.3476e-03  0:02:08 1487
    14  2.4030e-01  1.1740e-03  9.9308e-04  5.4738e-03  0:01:42 1486
    15  2.4666e-01  1.1841e-03  1.0062e-03  5.5759e-03  0:01:22 1485
    16  2.5467e-01  1.2134e-03  1.0466e-03  5.6492e-03  0:06:02 1484
    17  2.5414e-01  1.2288e-03  1.0431e-03  5.7113e-03  0:04:49 1483
    18  2.5685e-01  1.2456e-03  1.0633e-03  5.7283e-03  0:03:51 1482
    19  2.5871e-01  1.2646e-03  1.0506e-03  5.7806e-03  0:03:05 1481
    20  2.6076e-01  1.2833e-03  1.0847e-03  5.7918e-03  0:02:28 1480
    21  2.6256e-01  1.2935e-03  1.0740e-03  5.8142e-03  0:01:58 1479
    22  2.6045e-01  1.2972e-03  1.0918e-03  5.7979e-03  0:01:35 1478

  iter  continuity  x-velocity  y-velocity         nut     time/iter
    23  2.5971e-01  1.3099e-03  1.0873e-03  5.8251e-03  0:01:16 1477
    24  2.6092e-01  1.3130e-03  1.1144e-03  5.8381e-03  0:01:00 1476
    25  2.6170e-01  1.3049e-03  1.0969e-03  5.8594e-03  0:00:48 1475
    26  2.6101e-01  1.3076e-03  1.1166e-03  5.9976e-03  0:00:39 1474
    27  2.6858e-01  1.3261e-03  1.1333e-03  6.0948e-03  0:00:31 1473
    28  2.7000e-01  1.3392e-03  1.1631e-03  6.2845e-03  0:00:25 1472
    29  2.6866e-01  1.3284e-03  1.1459e-03  6.5530e-03  0:00:20 1471
    30  2.6820e-01  1.3349e-03  1.1618e-03  6.8165e-03  0:00:16 1470
    31  2.7665e-01  1.3555e-03  1.1862e-03  7.1258e-03  0:00:13 1469
    32  2.7563e-01  1.3574e-03  1.2041e-03  7.5259e-03  0:00:10 1468
    33  2.8282e-01  1.3742e-03  1.2227e-03  7.7996e-03  0:00:08 1467

  iter  continuity  x-velocity  y-velocity         nut     time/iter
    34  2.8250e-01  1.3864e-03  1.2485e-03  8.2066e-03  0:00:06 1466
    35  2.8812e-01  1.3974e-03  1.2699e-03  8.5183e-03  0:00:05 1465
    36  2.8848e-01  1.4161e-03  1.3005e-03  8.7948e-03  0:04:57 1464
    37  2.9457e-01  1.4311e-03  1.3195e-03  8.9659e-03  0:03:57 1463
    38  2.9227e-01  1.4360e-03  1.3422e-03  9.1654e-03  0:03:10 1462
    39  3.0267e-01  1.4490e-03  1.3614e-03  9.3344e-03  0:02:32 1461
    40  3.0150e-01  1.4571e-03  1.3952e-03  9.4674e-03  0:02:01 1460
    41  3.0897e-01  1.4732e-03  1.4154e-03  9.5514e-03  0:01:37 1459
    42  3.0499e-01  1.4859e-03  1.4341e-03  9.6136e-03  0:01:18 1458
    43  3.1276e-01  1.5043e-03  1.4349e-03  9.6282e-03  0:01:02 1457
    44  3.1125e-01  1.5324e-03  1.4741e-03  9.6176e-03  0:00:50 1456

  iter  continuity  x-velocity  y-velocity         nut     time/iter
    45  3.1940e-01  1.5581e-03  1.4887e-03  9.5614e-03  0:00:40 1455
    46  3.2196e-01  1.5981e-03  1.5377e-03  9.4059e-03  0:00:32 1454
    47  3.3037e-01  1.6075e-03  1.5480e-03  9.3166e-03  0:00:25 1453
    48  3.2960e-01  1.6443e-03  1.5848e-03  9.1245e-03  0:00:20 1452
    49  3.3744e-01  1.6476e-03  1.5960e-03  9.0643e-03  0:00:16 1451
    50  3.3800e-01  1.6716e-03  1.6373e-03  9.0997e-03  0:00:13 1450
    51  3.5059e-01  1.6866e-03  1.6476e-03  9.1484e-03  0:00:10 1449
    52  3.4829e-01  1.6882e-03  1.6694e-03  9.3487e-03  0:00:08 1448
    53  3.5591e-01  1.7023e-03  1.6804e-03  9.4950e-03  0:00:07 1447
    54  3.4996e-01  1.7049e-03  1.6859e-03  9.4972e-03  0:04:54 1446
    55  3.5811e-01  1.7099e-03  1.6859e-03  9.5410e-03  0:03:55 1445

  iter  continuity  x-velocity  y-velocity         nut     time/iter
    56  3.6056e-01  1.7200e-03  1.7228e-03  9.4965e-03  0:03:08 1444
    57  3.5760e-01  1.7416e-03  1.7370e-03  9.5988e-03  0:02:30 1443
    58  3.6558e-01  1.7531e-03  1.7528e-03  9.6318e-03  0:02:00 1442
    59  3.6709e-01  1.7837e-03  1.7870e-03  9.6095e-03  0:01:36 1441
    60  3.6367e-01  1.8015e-03  1.8144e-03  9.6378e-03  0:01:17 1440
    61  3.7317e-01  1.7949e-03  1.7988e-03  9.6915e-03  0:01:01 1439
    62  3.6996e-01  1.8337e-03  1.8456e-03  9.8903e-03  0:00:49 1438
    63  3.7488e-01  1.8700e-03  1.8563e-03  1.0034e-02  0:00:39 1437
    64  3.7657e-01  1.9260e-03  1.9235e-03  1.0351e-02  0:00:31 1436
    65  3.8830e-01  1.9630e-03  1.9449e-03  1.0607e-02  0:00:25 1435
    66  3.8616e-01  1.9981e-03  1.9963e-03  1.0898e-02  0:00:20 1434

  iter  continuity  x-velocity  y-velocity         nut     time/iter
    67  3.9974e-01  2.0441e-03  2.0418e-03  1.0966e-02  0:00:16 1433
    68  3.9135e-01  2.0367e-03  2.0607e-03  1.1256e-02  0:00:13 1432
    69  4.0002e-01  2.0685e-03  2.0832e-03  1.1476e-02  0:00:10 1431
    70  4.0607e-01  2.1085e-03  2.1401e-03  1.1758e-02  0:00:08 1430
    71  3.9517e-01  2.1402e-03  2.2017e-03  1.1897e-02  0:04:52 1429
    72  4.0184e-01  2.1928e-03  2.2159e-03  1.1909e-02  0:03:54 1428
    73  4.0487e-01  2.2224e-03  2.2429e-03  1.1887e-02  0:03:07 1427
    74  4.0585e-01  2.2821e-03  2.3010e-03  1.1759e-02  0:02:29 1426
    75  4.1623e-01  2.3007e-03  2.3029e-03  1.1792e-02  0:01:59 1425
    76  4.1572e-01  2.3367e-03  2.3374e-03  1.1790e-02  0:01:35 1424
    77  4.2057e-01  2.3424e-03  2.3567e-03  1.1929e-02  0:01:16 1423

  iter  continuity  x-velocity  y-velocity         nut     time/iter
    78  4.1516e-01  2.3900e-03  2.4103e-03  1.2194e-02  0:01:01 1422
    79  4.1918e-01  2.3543e-03  2.3833e-03  1.2278e-02  0:00:49 1421
    80  4.1333e-01  2.3570e-03  2.3810e-03  1.2355e-02  0:00:39 1420
    81  4.0872e-01  2.3240e-03  2.3729e-03  1.2469e-02  0:00:31 1419
    82  4.1463e-01  2.3576e-03  2.3852e-03  1.2545e-02  0:00:25 1418
    83  3.9844e-01  2.3341e-03  2.4162e-03  1.2593e-02  0:00:20 1417
    84  4.1765e-01  2.3873e-03  2.3915e-03  1.2816e-02  0:00:16 1416
    85  4.0230e-01  2.3733e-03  2.4307e-03  1.3049e-02  0:00:13 1415
    86  4.0583e-01  2.3837e-03  2.4112e-03  1.3339e-02  0:00:10 1414
    87  4.0637e-01  2.3687e-03  2.4256e-03  1.3462e-02  0:00:08 1413
    88  4.1971e-01  2.4242e-03  2.4489e-03  1.3489e-02  0:00:07 1412

  iter  continuity  x-velocity  y-velocity         nut     time/iter
    89  4.1077e-01  2.3990e-03  2.4797e-03  1.3591e-02  0:00:05 1411
    90  4.2334e-01  2.4241e-03  2.5160e-03  1.3621e-02  0:04:46 1410
    91  4.1882e-01  2.4566e-03  2.5834e-03  1.3555e-02  0:03:49 1409
    92  4.2924e-01  2.5086e-03  2.5984e-03  1.3432e-02  0:03:03 1408
    93  4.1795e-01  2.5404e-03  2.6587e-03  1.3339e-02  0:02:26 1407
    94  4.2792e-01  2.5749e-03  2.6646e-03  1.3120e-02  0:01:57 1406
    95  4.2490e-01  2.5954e-03  2.6886e-03  1.3060e-02  0:01:33 1405
    96  4.3672e-01  2.6046e-03  2.6646e-03  1.3060e-02  0:01:15 1404
    97  4.3111e-01  2.5943e-03  2.6251e-03  1.3034e-02  0:01:00 1403
    98  4.1981e-01  2.5929e-03  2.6587e-03  1.2928e-02  0:00:48 1402
    99  4.3202e-01  2.5725e-03  2.6335e-03  1.2941e-02  0:00:38 1401

  iter  continuity  x-velocity  y-velocity         nut     time/iter
   100  4.3706e-01  2.6021e-03  2.6949e-03  1.3082e-02  0:00:31 1400
   101  4.3040e-01  2.6097e-03  2.7131e-03  1.3180e-02  0:00:24 1399
   102  4.4152e-01  2.6212e-03  2.7428e-03  1.3207e-02  0:00:19 1398
   103  4.3016e-01  2.6585e-03  2.7943e-03  1.3230e-02  0:00:16 1397
   104  4.3992e-01  2.7012e-03  2.7939e-03  1.3225e-02  0:00:12 1396
   105  4.3519e-01  2.7315e-03  2.8572e-03  1.3423e-02  0:00:10 1395
   106  4.4640e-01  2.7862e-03  2.9050e-03  1.3551e-02  0:00:08 1394
   107  4.4213e-01  2.8157e-03  2.9361e-03  1.3840e-02  0:00:06 1393
   108  4.5178e-01  2.8208e-03  2.9272e-03  1.3984e-02  0:00:05 1392
   109  4.4900e-01  2.8011e-03  2.9126e-03  1.4217e-02  0:04:42 1391
   110  4.4822e-01  2.7988e-03  2.9039e-03  1.4362e-02  0:03:46 1390

  iter  continuity  x-velocity  y-velocity         nut     time/iter
   111  4.6489e-01  2.7922e-03  2.9041e-03  1.4449e-02  0:03:00 1389
   112  4.6330e-01  2.8473e-03  3.0172e-03  1.4360e-02  0:02:24 1388
   113  4.7371e-01  2.8513e-03  3.0342e-03  1.4280e-02  0:01:55 1387
   114  4.6886e-01  2.8339e-03  3.0385e-03  1.4209e-02  0:01:32 1386
   115  4.5567e-01  2.8105e-03  3.0092e-03  1.4100e-02  0:01:14 1385
   116  4.6812e-01  2.8649e-03  3.0652e-03  1.3931e-02  0:00:59 1384
   117  4.7572e-01  2.9065e-03  3.1208e-03  1.3708e-02  0:00:47 1383
   118  4.6760e-01  2.9377e-03  3.1540e-03  1.3526e-02  0:00:38 1382
   119  4.7134e-01  2.9634e-03  3.1373e-03  1.3435e-02  0:00:30 1381
   120  4.7492e-01  3.0173e-03  3.2026e-03  1.3387e-02  0:00:24 1380
   121  4.7893e-01  3.0028e-03  3.2018e-03  1.3403e-02  0:00:19 1379

  iter  continuity  x-velocity  y-velocity         nut     time/iter
   122  4.7514e-01  3.0687e-03  3.2763e-03  1.3397e-02  0:00:15 1378
   123  4.7784e-01  3.0209e-03  3.2437e-03  1.3600e-02  0:00:12 1377
   124  4.7764e-01  3.0111e-03  3.2010e-03  1.3697e-02  0:00:10 1376
   125  4.7175e-01  2.9771e-03  3.2345e-03  1.3746e-02  0:00:08 1375
   126  4.8481e-01  2.9379e-03  3.1969e-03  1.3848e-02  0:00:06 1374
   127  4.8983e-01  2.9835e-03  3.2890e-03  1.3929e-02  0:00:05 1373
   128  4.8410e-01  2.9912e-03  3.2465e-03  1.3916e-02  0:00:04 1372
   129  4.7518e-01  2.9697e-03  3.2805e-03  1.3930e-02  0:04:37 1371
   130  4.7343e-01  3.0336e-03  3.3026e-03  1.4031e-02  0:03:42 1370
   131  4.7606e-01  3.0462e-03  3.3046e-03  1.4202e-02  0:02:57 1369
   132  4.9633e-01  3.1467e-03  3.3631e-03  1.4401e-02  0:02:22 1368

  iter  continuity  x-velocity  y-velocity         nut     time/iter
   133  5.0207e-01  3.1902e-03  3.4182e-03  1.4560e-02  0:01:53 1367
   134  5.1325e-01  3.1683e-03  3.3779e-03  1.4805e-02  0:01:31 1366
   135  5.0291e-01  3.1526e-03  3.3780e-03  1.4893e-02  0:01:12 1365
   136  5.0247e-01  3.1120e-03  3.4037e-03  1.4920e-02  0:00:58 1364
   137  5.1344e-01  3.1795e-03  3.4723e-03  1.4819e-02  0:00:46 1363
   138  5.0018e-01  3.1319e-03  3.4412e-03  1.4695e-02  0:00:37 1362
   139  5.0011e-01  3.1516e-03  3.4475e-03  1.4389e-02  0:05:02 1361
   140  4.8594e-01  3.1639e-03  3.5084e-03  1.4112e-02  0:04:01 1360
   141  5.0018e-01  3.2396e-03  3.5209e-03  1.4002e-02  0:03:13 1359
   142  4.9526e-01  3.2952e-03  3.5616e-03  1.3918e-02  0:02:34 1358
   143  5.1859e-01  3.3824e-03  3.6414e-03  1.3909e-02  0:02:03 1357

  iter  continuity  x-velocity  y-velocity         nut     time/iter
   144  5.2285e-01  3.4564e-03  3.7023e-03  1.3978e-02  0:01:39 1356
   145  5.2944e-01  3.4290e-03  3.6657e-03  1.4234e-02  0:01:19 1355
   146  5.1950e-01  3.4500e-03  3.6856e-03  1.4373e-02  0:01:03 1354
   147  5.1010e-01  3.3504e-03  3.6363e-03  1.4526e-02  0:00:50 1353
   148  5.0470e-01  3.3021e-03  3.5655e-03  1.4589e-02  0:00:40 1352
   149  4.8440e-01  3.2382e-03  3.5348e-03  1.4491e-02  0:00:32 1351
   150  4.8054e-01  3.2245e-03  3.5219e-03  1.4641e-02  0:00:26 1350
   151  4.9223e-01  3.2618e-03  3.5508e-03  1.4621e-02  0:00:21 1349
   152  4.9978e-01  3.3393e-03  3.6680e-03  1.4729e-02  0:00:16 1348
   153  5.0383e-01  3.3605e-03  3.6380e-03  1.5019e-02  0:00:13 1347
   154  5.0921e-01  3.4133e-03  3.6733e-03  1.5316e-02  0:04:40 1346

  iter  continuity  x-velocity  y-velocity         nut     time/iter
   155  5.3885e-01  3.5473e-03  3.8170e-03  1.5605e-02  0:03:44 1345
   156  5.2103e-01  3.5238e-03  3.7760e-03  1.5780e-02  0:02:59 1344
   157  5.2799e-01  3.4722e-03  3.7195e-03  1.5774e-02  0:02:23 1343
   158  5.1870e-01  3.4331e-03  3.7096e-03  1.5692e-02  0:01:54 1342
   159  5.1820e-01  3.3993e-03  3.7385e-03  1.5685e-02  0:01:31 1341
   160  5.0425e-01  3.4290e-03  3.7680e-03  1.5365e-02  0:01:13 1340
   161  4.9869e-01  3.4076e-03  3.7900e-03  1.5230e-02  0:00:58 1339
   162  5.0720e-01  3.4494e-03  3.7518e-03  1.4945e-02  0:00:47 1338
   163  5.0428e-01  3.4131e-03  3.7195e-03  1.4658e-02  0:00:37 1337
   164  4.9834e-01  3.4588e-03  3.7801e-03  1.4519e-02  0:00:30 1336
   165  5.1030e-01  3.4947e-03  3.7737e-03  1.4522e-02  0:00:24 1335

  iter  continuity  x-velocity  y-velocity         nut     time/iter
   166  4.9650e-01  3.5156e-03  3.8263e-03  1.4529e-02  0:00:19 1334
   167  5.0772e-01  3.4555e-03  3.7244e-03  1.4617e-02  0:00:15 1333
   168  4.9240e-01  3.4357e-03  3.6944e-03  1.4673e-02  0:00:12 1332
   169  5.0973e-01  3.3800e-03  3.6284e-03  1.4675e-02  0:04:36 1331
   170  4.9196e-01  3.3583e-03  3.6301e-03  1.4714e-02  0:03:41 1330
   171  4.9932e-01  3.2899e-03  3.5676e-03  1.4914e-02  0:02:56 1329
   172  4.9479e-01  3.2745e-03  3.5986e-03  1.4817e-02  0:02:21 1328
   173  5.0343e-01  3.2616e-03  3.5844e-03  1.4956e-02  0:01:53 1327
   174  5.0484e-01  3.2752e-03  3.5785e-03  1.4935e-02  0:01:30 1326
   175  5.0100e-01  3.2741e-03  3.5514e-03  1.5168e-02  0:01:12 1325
   176  4.8851e-01  3.2619e-03  3.5623e-03  1.5399e-02  0:00:58 1324

  iter  continuity  x-velocity  y-velocity         nut     time/iter
   177  5.0282e-01  3.3068e-03  3.5278e-03  1.5814e-02  0:00:46 1323
   178  4.9853e-01  3.3059e-03  3.5211e-03  1.6224e-02  0:00:37 1322
   179  4.9817e-01  3.2876e-03  3.4939e-03  1.6581e-02  0:00:29 1321
   180  4.9231e-01  3.3021e-03  3.5523e-03  1.6651e-02  0:00:24 1320
   181  5.0434e-01  3.3227e-03  3.5160e-03  1.6623e-02  0:00:19 1319
   182  4.6776e-01  3.2344e-03  3.5264e-03  1.6558e-02  0:00:15 1318
   183  4.9248e-01  3.2530e-03  3.5320e-03  1.6520e-02  0:00:12 1317
   184  4.6966e-01  3.2459e-03  3.5529e-03  1.6272e-02  0:00:10 1316
   185  4.8854e-01  3.2680e-03  3.5218e-03  1.6227e-02  0:04:31 1315
   186  4.6483e-01  3.2615e-03  3.5627e-03  1.6014e-02  0:03:36 1314
   187  4.8973e-01  3.2739e-03  3.5064e-03  1.5829e-02  0:02:53 1313

  iter  continuity  x-velocity  y-velocity         nut     time/iter
   188  4.7670e-01  3.2507e-03  3.5004e-03  1.5737e-02  0:02:18 1312
   189  4.7551e-01  3.1976e-03  3.4688e-03  1.5670e-02  0:01:51 1311
   190  4.8594e-01  3.1971e-03  3.4154e-03  1.5705e-02  0:01:28 1310
   191  4.7077e-01  3.1551e-03  3.4148e-03  1.5729e-02  0:01:11 1309
   192  5.0253e-01  3.2134e-03  3.4282e-03  1.5730e-02  0:00:56 1308
   193  4.7706e-01  3.1005e-03  3.3757e-03  1.5726e-02  0:00:45 1307
   194  4.7642e-01  3.0651e-03  3.3648e-03  1.5893e-02  0:00:36 1306
   195  4.7990e-01  3.0313e-03  3.3005e-03  1.5773e-02  0:00:29 1305
   196  4.6180e-01  2.9735e-03  3.3095e-03  1.5775e-02  0:00:23 1304
   197  4.7934e-01  2.9694e-03  3.2437e-03  1.5656e-02  0:00:18 1303
   198  4.6334e-01  2.9420e-03  3.2145e-03  1.5666e-02  0:00:15 1302

  iter  continuity  x-velocity  y-velocity         nut     time/iter
   199  4.7100e-01  2.9078e-03  3.1453e-03  1.5658e-02  0:00:12 1301
   200  4.5910e-01  2.9425e-03  3.1718e-03  1.5750e-02  0:00:09 1300
   201  4.6232e-01  2.8928e-03  3.0551e-03  1.6000e-02  0:00:08 1299
   202  4.4250e-01  2.8375e-03  3.0099e-03  1.6360e-02  0:04:26 1298
   203  4.4413e-01  2.8205e-03  3.0053e-03  1.6506e-02  0:03:32 1297
   204  4.5350e-01  2.8123e-03  2.9597e-03  1.6585e-02  0:02:50 1296
   205  4.3297e-01  2.7441e-03  2.9462e-03  1.6596e-02  0:02:16 1295
   206  4.3632e-01  2.6964e-03  2.9278e-03  1.6441e-02  0:01:48 1294
   207  4.3146e-01  2.6774e-03  2.9253e-03  1.6274e-02  0:01:27 1293
   208  4.3803e-01  2.6404e-03  2.8821e-03  1.6031e-02  0:01:09 1292
   209  4.3426e-01  2.6282e-03  2.8905e-03  1.5931e-02  0:00:55 1291

  iter  continuity  x-velocity  y-velocity         nut     time/iter
   210  4.5385e-01  2.6390e-03  2.8661e-03  1.5625e-02  0:00:44 1290
   211  4.2687e-01  2.6138e-03  2.8302e-03  1.5552e-02  0:00:35 1289
   212  4.4539e-01  2.6054e-03  2.7742e-03  1.5606e-02  0:00:28 1288
   213  4.2800e-01  2.5426e-03  2.7501e-03  1.5799e-02  0:04:40 1287
   214  4.2878e-01  2.5195e-03  2.7240e-03  1.6144e-02  0:03:44 1286
   215  4.2213e-01  2.4756e-03  2.6774e-03  1.6264e-02  0:02:59 1285
   216  4.1582e-01  2.4413e-03  2.6812e-03  1.6380e-02  0:02:23 1284
   217  4.2635e-01  2.4274e-03  2.6473e-03  1.6526e-02  0:01:54 1283
   218  4.1395e-01  2.3928e-03  2.6360e-03  1.6468e-02  0:01:31 1282
   219  4.3305e-01  2.3850e-03  2.6047e-03  1.6278e-02  0:01:13 1281
   220  4.1071e-01  2.3810e-03  2.5936e-03  1.6124e-02  0:00:58 1280

  iter  continuity  x-velocity  y-velocity         nut     time/iter
   221  4.2784e-01  2.3900e-03  2.5528e-03  1.5871e-02  0:00:47 1279
   222  4.0644e-01  2.3729e-03  2.5008e-03  1.5525e-02  0:00:37 1278
   223  4.0109e-01  2.3521e-03  2.4614e-03  1.5268e-02  0:00:30 1277
   224  3.9237e-01  2.3411e-03  2.4560e-03  1.5222e-02  0:00:24 1276
   225  3.9383e-01  2.3089e-03  2.4132e-03  1.5244e-02  0:00:19 1275
   226  3.8877e-01  2.2607e-03  2.3917e-03  1.5246e-02  0:00:15 1274
   227  3.8963e-01  2.2096e-03  2.3520e-03  1.4976e-02  0:00:12 1273
   228  3.9058e-01  2.2393e-03  2.3967e-03  1.4729e-02  0:00:10 1272
   229  4.0519e-01  2.2246e-03  2.3455e-03  1.4413e-02  0:00:08 1271
   230  3.8999e-01  2.2373e-03  2.3623e-03  1.4164e-02  0:00:06 1270
   231  3.9830e-01  2.2107e-03  2.3052e-03  1.4016e-02  0:00:05 1269

  iter  continuity  x-velocity  y-velocity         nut     time/iter
   232  3.9147e-01  2.1932e-03  2.2983e-03  1.3951e-02  0:04:18 1268
   233  3.9229e-01  2.1780e-03  2.2776e-03  1.4034e-02  0:03:26 1267
   234  3.9368e-01  2.1513e-03  2.2533e-03  1.4201e-02  0:02:45 1266
   235  3.9352e-01  2.1434e-03  2.2550e-03  1.4305e-02  0:02:12 1265
   236  3.8937e-01  2.1355e-03  2.2653e-03  1.4306e-02  0:01:45 1264
   237  3.8895e-01  2.1469e-03  2.2624e-03  1.4246e-02  0:01:24 1263
   238  3.8880e-01  2.1466e-03  2.2662e-03  1.4125e-02  0:01:07 1262
   239  3.8961e-01  2.1585e-03  2.2664e-03  1.4007e-02  0:00:54 1261
   240  3.8316e-01  2.1468e-03  2.2569e-03  1.3931e-02  0:00:43 1260
   241  3.8597e-01  2.1675e-03  2.2619e-03  1.3943e-02  0:00:34 1259
   242  3.8786e-01  2.1720e-03  2.2620e-03  1.3943e-02  0:00:27 1258

  iter  continuity  x-velocity  y-velocity         nut     time/iter
   243  3.8916e-01  2.1473e-03  2.2489e-03  1.4204e-02  0:00:22 1257
   244  3.8249e-01  2.1503e-03  2.2636e-03  1.4232e-02  0:00:18 1256
   245  3.9850e-01  2.1788e-03  2.2923e-03  1.4073e-02  0:00:14 1255
   246  3.9893e-01  2.1654e-03  2.2855e-03  1.3818e-02  0:00:11 1254
   247  3.9879e-01  2.1285e-03  2.2563e-03  1.3558e-02  0:00:09 1253
   248  3.9249e-01  2.0965e-03  2.2261e-03  1.3428e-02  0:00:07 1252
   249  3.9237e-01  2.0734e-03  2.1967e-03  1.3244e-02  0:00:06 1251
   250  3.8426e-01  2.0332e-03  2.1651e-03  1.3098e-02  0:00:05 1250
   251  3.9203e-01  2.0457e-03  2.1661e-03  1.3171e-02  0:04:13 1249
   252  3.8531e-01  1.9914e-03  2.1205e-03  1.3240e-02  0:03:23 1248
   253  3.7785e-01  1.9466e-03  2.0596e-03  1.3358e-02  0:02:42 1247

  iter  continuity  x-velocity  y-velocity         nut     time/iter
   254  3.6978e-01  1.8871e-03  2.0091e-03  1.3334e-02  0:02:09 1246
   255  3.6596e-01  1.8656e-03  1.9642e-03  1.3287e-02  0:01:43 1245
   256  3.5881e-01  1.8049e-03  1.9193e-03  1.3004e-02  0:01:23 1244
   257  3.5122e-01  1.7667e-03  1.8789e-03  1.2570e-02  0:01:06 1243
   258  3.5015e-01  1.7220e-03  1.8409e-03  1.2352e-02  0:00:53 1242
   259  3.4548e-01  1.6785e-03  1.7931e-03  1.1875e-02  0:00:42 1241
   260  3.4114e-01  1.6489e-03  1.7608e-03  1.1390e-02  0:00:34 1240
   261  3.3963e-01  1.6237e-03  1.7170e-03  1.0936e-02  0:00:27 1239
   262  3.3754e-01  1.5792e-03  1.6743e-03  1.0648e-02  0:00:22 1238
   263  3.2892e-01  1.5386e-03  1.6403e-03  1.0504e-02  0:00:17 1237
   264  3.2761e-01  1.5064e-03  1.6068e-03  1.0201e-02  0:00:14 1236

  iter  continuity  x-velocity  y-velocity         nut     time/iter
   265  3.1766e-01  1.4407e-03  1.5377e-03  9.8756e-03  0:00:11 1235
   266  3.1637e-01  1.3803e-03  1.4890e-03  9.5570e-03  0:00:09 1234
   267  3.0951e-01  1.3470e-03  1.4529e-03  9.1123e-03  0:00:07 1233
   268  3.0661e-01  1.3013e-03  1.3895e-03  8.7794e-03  0:00:06 1232
   269  3.0264e-01  1.2668e-03  1.3325e-03  8.5940e-03  0:00:05 1231
   270  2.9500e-01  1.2325e-03  1.2874e-03  8.3654e-03  0:04:10 1230
   271  2.9199e-01  1.1905e-03  1.2391e-03  8.2422e-03  0:03:20 1229
   272  2.8580e-01  1.1452e-03  1.2103e-03  7.9173e-03  0:02:39 1228
   273  2.8005e-01  1.1092e-03  1.1768e-03  7.5318e-03  0:02:07 1227
   274  2.7079e-01  1.0769e-03  1.1560e-03  7.2527e-03  0:01:42 1226
   275  2.6738e-01  1.0702e-03  1.1198e-03  6.9863e-03  0:01:21 1225

  iter  continuity  x-velocity  y-velocity         nut     time/iter
   276  2.6198e-01  1.0476e-03  1.1110e-03  6.5855e-03  0:01:05 1224
   277  2.6553e-01  1.0438e-03  1.0998e-03  6.3143e-03  0:00:52 1223
   278  2.5948e-01  1.0047e-03  1.0763e-03  6.1751e-03  0:00:42 1222
   279  2.6249e-01  9.9176e-04  1.0694e-03  5.9263e-03  0:00:33 1221
   280  2.6184e-01  9.6683e-04  1.0663e-03  5.6733e-03  0:00:27 1220
   281  2.5707e-01  9.6023e-04  1.0480e-03  5.5641e-03  0:00:21 1219
   282  2.6234e-01  9.3967e-04  1.0245e-03  5.3937e-03  0:00:17 1218
   283  2.6139e-01  9.3781e-04  1.0229e-03  5.2978e-03  0:00:14 1217
   284  2.5063e-01  9.2463e-04  1.0125e-03  5.1986e-03  0:04:14 1216
   285  2.5490e-01  9.1808e-04  9.8980e-04  5.0806e-03  0:03:23 1215
   286  2.4653e-01  9.0110e-04  9.9351e-04  4.9101e-03  0:02:42 1214

  iter  continuity  x-velocity  y-velocity         nut     time/iter
   287  2.4983e-01  8.9788e-04  9.8338e-04  4.6975e-03  0:02:10 1213
   288  2.4504e-01  8.9004e-04  9.7686e-04  4.5255e-03  0:01:44 1212
   289  2.5090e-01  8.8684e-04  9.7667e-04  4.3511e-03  0:01:23 1211
   290  2.4611e-01  8.8463e-04  9.7854e-04  4.2791e-03  0:01:06 1210
   291  2.4704e-01  8.7779e-04  9.6268e-04  4.1406e-03  0:00:53 1209
   292  2.4523e-01  8.7615e-04  9.7059e-04  3.9301e-03  0:00:42 1208
   293  2.4522e-01  8.6348e-04  9.6117e-04  3.8610e-03  0:00:34 1207
   294  2.4680e-01  8.5757e-04  9.6466e-04  3.7682e-03  0:00:27 1206
   295  2.4596e-01  8.5523e-04  9.5863e-04  3.7598e-03  0:00:22 1205
   296  2.4154e-01  8.5119e-04  9.6224e-04  3.7509e-03  0:00:17 1204
   297  2.4789e-01  8.5086e-04  9.4999e-04  3.7119e-03  0:00:14 1203

  iter  continuity  x-velocity  y-velocity         nut     time/iter
   298  2.4911e-01  8.5373e-04  9.6565e-04  3.6352e-03  0:00:11 1202
   299  2.4808e-01  8.5514e-04  9.7004e-04  3.6105e-03  0:00:09 1201
   300  2.5529e-01  8.5370e-04  9.6092e-04  3.6109e-03  0:00:07 1200
   301  2.5436e-01  8.5295e-04  9.5999e-04  3.5518e-03  0:00:06 1199
   302  2.4943e-01  8.4019e-04  9.5197e-04  3.5096e-03  0:00:05 1198
   303  2.5824e-01  8.4290e-04  9.4457e-04  3.4867e-03  0:04:03 1197
   304  2.5500e-01  8.4276e-04  9.5797e-04  3.4777e-03  0:03:14 1196
   305  2.5047e-01  8.3148e-04  9.4068e-04  3.3947e-03  0:02:35 1195
   306  2.5198e-01  8.3502e-04  9.4056e-04  3.3610e-03  0:02:04 1194
   307  2.5122e-01  8.3090e-04  9.4637e-04  3.3606e-03  0:01:39 1193
   308  2.4583e-01  8.2870e-04  9.3486e-04  3.2695e-03  0:01:19 1192

  iter  continuity  x-velocity  y-velocity         nut     time/iter
   309  2.4837e-01  8.1768e-04  9.3155e-04  3.2337e-03  0:01:03 1191
   310  2.4669e-01  8.3047e-04  9.4768e-04  3.2384e-03  0:00:51 1190
   311  2.4634e-01  8.2764e-04  9.2893e-04  3.1983e-03  0:00:40 1189
   312  2.4486e-01  8.3256e-04  9.3965e-04  3.1375e-03  0:00:32 1188
   313  2.4564e-01  8.3607e-04  9.4257e-04  3.0944e-03  0:00:26 1187
   314  2.5026e-01  8.5093e-04  9.5265e-04  3.0564e-03  0:00:21 1186
   315  2.4914e-01  8.5203e-04  9.5255e-04  3.0246e-03  0:00:17 1185
   316  2.4784e-01  8.5596e-04  9.6494e-04  2.9461e-03  0:00:13 1184
   317  2.5189e-01  8.5774e-04  9.6361e-04  2.9076e-03  0:00:11 1183
   318  2.5919e-01  8.6571e-04  9.8286e-04  2.9052e-03  0:00:08 1182
   319  2.5933e-01  8.7179e-04  9.9562e-04  2.8960e-03  0:00:07 1181

  iter  continuity  x-velocity  y-velocity         nut     time/iter
   320  2.5913e-01  8.8174e-04  1.0031e-03  2.9442e-03  0:00:05 1180
   321  2.6359e-01  8.9417e-04  9.9951e-04  2.9593e-03  0:00:04 1179
   322  2.6034e-01  8.9326e-04  1.0109e-03  3.0178e-03  0:03:59 1178
   323  2.6614e-01  9.0264e-04  1.0143e-03  3.0412e-03  0:03:11 1177
   324  2.7073e-01  9.1230e-04  1.0276e-03  3.1016e-03  0:02:33 1176
   325  2.6980e-01  9.0719e-04  1.0394e-03  3.1428e-03  0:02:02 1175
   326  2.7014e-01  9.3219e-04  1.0488e-03  3.1832e-03  0:01:38 1174
   327  2.6192e-01  9.4103e-04  1.0631e-03  3.2626e-03  0:01:18 1173
   328  2.6658e-01  9.5399e-04  1.0631e-03  3.2695e-03  0:01:02 1172
   329  2.6842e-01  9.5802e-04  1.0866e-03  3.3006e-03  0:00:50 1171
   330  2.6260e-01  9.7917e-04  1.1081e-03  3.3783e-03  0:00:40 1170

  iter  continuity  x-velocity  y-velocity         nut     time/iter
   331  2.7486e-01  9.9944e-04  1.0978e-03  3.3945e-03  0:00:32 1169
   332  2.5978e-01  9.7920e-04  1.1128e-03  3.4277e-03  0:00:25 1168
   333  2.7124e-01  9.6551e-04  1.0809e-03  3.4445e-03  0:00:20 1167
   334  2.5958e-01  9.7933e-04  1.0863e-03  3.4967e-03  0:00:16 1166
   335  2.7071e-01  9.6273e-04  1.0685e-03  3.5409e-03  0:00:13 1165
   336  2.5583e-01  9.5060e-04  1.0672e-03  3.5743e-03  0:00:10 1164
   337  2.7267e-01  9.4629e-04  1.0524e-03  3.5598e-03  0:00:08 1163
   338  2.6634e-01  9.4554e-04  1.0659e-03  3.5432e-03  0:00:07 1162
   339  2.6704e-01  9.3111e-04  1.0768e-03  3.5543e-03  0:03:58 1161
   340  2.6779e-01  9.5401e-04  1.0879e-03  3.5611e-03  0:03:10 1160
   341  2.7650e-01  9.5805e-04  1.0626e-03  3.5573e-03  0:02:32 1159

  iter  continuity  x-velocity  y-velocity         nut     time/iter
   342  2.5717e-01  9.4302e-04  1.0657e-03  3.5282e-03  0:02:01 1158
   343  2.7022e-01  9.4531e-04  1.0460e-03  3.5784e-03  0:01:37 1157
   344  2.5318e-01  9.6059e-04  1.0682e-03  3.5570e-03  0:01:17 1156
   345  2.6041e-01  9.4877e-04  1.0442e-03  3.5225e-03  0:01:02 1155
   346  2.5750e-01  9.5741e-04  1.0592e-03  3.5064e-03  0:00:50 1154
   347  2.7137e-01  9.6175e-04  1.0620e-03  3.5066e-03  0:00:40 1153
   348  2.6979e-01  9.6954e-04  1.0721e-03  3.5219e-03  0:00:32 1152
   349  2.7468e-01  9.8237e-04  1.0957e-03  3.5672e-03  0:00:25 1151
   350  2.6659e-01  1.0166e-03  1.1331e-03  3.5633e-03  0:00:20 1150
   351  2.6836e-01  1.0094e-03  1.1145e-03  3.5204e-03  0:00:16 1149
   352  2.6332e-01  1.0184e-03  1.1463e-03  3.5468e-03  0:00:13 1148

  iter  continuity  x-velocity  y-velocity         nut     time/iter
   353  2.7298e-01  1.0258e-03  1.1501e-03  3.6548e-03  0:00:10 1147
   354  2.7251e-01  1.0460e-03  1.1740e-03  3.7107e-03  0:03:57 1146
   355  2.7607e-01  1.0666e-03  1.1929e-03  3.7319e-03  0:03:10 1145
   356  2.7925e-01  1.0773e-03  1.2118e-03  3.7995e-03  0:02:32 1144
   357  2.8770e-01  1.0841e-03  1.2233e-03  3.8537e-03  0:02:01 1143
   358  2.8857e-01  1.1135e-03  1.2607e-03  3.9539e-03  0:01:37 1142
   359  2.8862e-01  1.0878e-03  1.2481e-03  4.0069e-03  0:01:17 1141
   360  2.9778e-01  1.1293e-03  1.2988e-03  4.1360e-03  0:01:02 1140
   361  3.0579e-01  1.1538e-03  1.3071e-03  4.1749e-03  0:00:49 1139
   362  2.9564e-01  1.1111e-03  1.2519e-03  4.2240e-03  0:00:40 1138
   363  2.9281e-01  1.1069e-03  1.2331e-03  4.3082e-03  0:00:32 1137

  iter  continuity  x-velocity  y-velocity         nut     time/iter
   364  2.8727e-01  1.0997e-03  1.2153e-03  4.3525e-03  0:04:12 1136
   365  2.8352e-01  1.1070e-03  1.2126e-03  4.4401e-03  0:03:22 1135
   366  2.8351e-01  1.1035e-03  1.2084e-03  4.4825e-03  0:02:41 1134
   367  2.8073e-01  1.1003e-03  1.1954e-03  4.5684e-03  0:02:09 1133
   368  2.8455e-01  1.0857e-03  1.1767e-03  4.6959e-03  0:01:43 1132
   369  2.8676e-01  1.0920e-03  1.1889e-03  4.8007e-03  0:01:22 1131
   370  2.8313e-01  1.0706e-03  1.1760e-03  4.9702e-03  0:01:06 1130
   371  2.7738e-01  1.0341e-03  1.1385e-03  5.1368e-03  0:00:53 1129
   372  2.7198e-01  1.0111e-03  1.1284e-03  5.3978e-03  0:00:42 1128
   373  2.7083e-01  9.8955e-04  1.1048e-03  5.6328e-03  0:00:34 1127
   374  2.6949e-01  9.9478e-04  1.1067e-03  5.7914e-03  0:00:27 1126

  iter  continuity  x-velocity  y-velocity         nut     time/iter
   375  2.6940e-01  9.8561e-04  1.0894e-03  6.0384e-03  0:00:21 1125
   376  2.6459e-01  9.7417e-04  1.0819e-03  6.2680e-03  0:00:17 1124
   377  2.6505e-01  9.6458e-04  1.0648e-03  6.3893e-03  0:00:14 1123
   378  2.6539e-01  9.4512e-04  1.0536e-03  6.4584e-03  0:00:11 1122
   379  2.6580e-01  9.3956e-04  1.0543e-03  6.5129e-03  0:03:53 1121
   380  2.6028e-01  9.3832e-04  1.0427e-03  6.4904e-03  0:03:06 1120
   381  2.5641e-01  9.1728e-04  1.0041e-03  6.3576e-03  0:02:29 1119
   382  2.5041e-01  9.0890e-04  1.0046e-03  6.2086e-03  0:01:59 1118
   383  2.5216e-01  8.9450e-04  9.8187e-04  5.9606e-03  0:01:35 1117
   384  2.5112e-01  8.9420e-04  9.9878e-04  5.6264e-03  0:01:16 1116
   385  2.4520e-01  8.5290e-04  9.4686e-04  5.3031e-03  0:01:01 1115

  iter  continuity  x-velocity  y-velocity         nut     time/iter
   386  2.4168e-01  8.4956e-04  9.4941e-04  4.9128e-03  0:00:49 1114
   387  2.4347e-01  8.3468e-04  9.1896e-04  4.5223e-03  0:00:39 1113
   388  2.4175e-01  8.2283e-04  9.1530e-04  4.0932e-03  0:00:31 1112
   389  2.4512e-01  8.1032e-04  9.0253e-04  3.6610e-03  0:00:25 1111
   390  2.3927e-01  7.9923e-04  9.0246e-04  3.2782e-03  0:00:20 1110
   391  2.3677e-01  7.8882e-04  8.8099e-04  2.9766e-03  0:00:16 1109
   392  2.3315e-01  7.7416e-04  8.8420e-04  2.7548e-03  0:00:13 1108
   393  2.3257e-01  7.6248e-04  8.7046e-04  2.6016e-03  0:00:10 1107
   394  2.2737e-01  7.5752e-04  8.6471e-04  2.5193e-03  0:03:49 1106
   395  2.2627e-01  7.4795e-04  8.5714e-04  2.4287e-03  0:03:03 1105
   396  2.2315e-01  7.4956e-04  8.5525e-04  2.2967e-03  0:02:26 1104

  iter  continuity  x-velocity  y-velocity         nut     time/iter
   397  2.2417e-01  7.3731e-04  8.2703e-04  2.1870e-03  0:01:57 1103
   398  2.2111e-01  7.1806e-04  8.2054e-04  2.1185e-03  0:01:34 1102
   399  2.2031e-01  7.0565e-04  8.0398e-04  2.0851e-03  0:01:15 1101
   400  2.1843e-01  6.9601e-04  7.8965e-04  2.0687e-03  0:01:00 1100
   401  2.1836e-01  6.8619e-04  7.7201e-04  2.0697e-03  0:00:48 1099
   402  2.1585e-01  6.7275e-04  7.6956e-04  2.0899e-03  0:00:38 1098
   403  2.1753e-01  6.6755e-04  7.5087e-04  2.0843e-03  0:00:31 1097
   404  2.1562e-01  6.5078e-04  7.4462e-04  2.0889e-03  0:00:24 1096
   405  2.1493e-01  6.4767e-04  7.3533e-04  2.1116e-03  0:00:19 1095
   406  2.1176e-01  6.3222e-04  7.2528e-04  2.1549e-03  0:00:16 1094
   407  2.1072e-01  6.2794e-04  7.0409e-04  2.1862e-03  0:00:12 1093

  iter  continuity  x-velocity  y-velocity         nut     time/iter
   408  2.1345e-01  6.3008e-04  7.1366e-04  2.2222e-03  0:00:10 1092
   409  2.1201e-01  6.2175e-04  6.9915e-04  2.2896e-03  0:03:46 1091
   410  2.1041e-01  6.1094e-04  6.9531e-04  2.3863e-03  0:03:01 1090
   411  2.0988e-01  6.0969e-04  6.8645e-04  2.5038e-03  0:02:24 1089
   412  2.0473e-01  5.9781e-04  6.8181e-04  2.6433e-03  0:01:55 1088
   413  2.0581e-01  5.9898e-04  6.7172e-04  2.7816e-03  0:01:32 1087
   414  2.0158e-01  5.9803e-04  6.7185e-04  2.9064e-03  0:01:14 1086
   415  1.9785e-01  5.9739e-04  6.6787e-04  3.0439e-03  0:00:59 1085
   416  1.9987e-01  5.9714e-04  6.7220e-04  3.2003e-03  0:00:47 1084
   417  2.0118e-01  6.0031e-04  6.6511e-04  3.3428e-03  0:00:38 1083
   418  2.0059e-01  6.0118e-04  6.7599e-04  3.4964e-03  0:00:30 1082

  iter  continuity  x-velocity  y-velocity         nut     time/iter
   419  2.0746e-01  6.3322e-04  7.0159e-04  3.6046e-03  0:00:24 1081
   420  2.1160e-01  6.6620e-04  7.1973e-04  3.7058e-03  0:00:19 1080
   421  2.0747e-01  6.3176e-04  6.8228e-04  3.7928e-03  0:00:15 1079
   422  2.0740e-01  6.2614e-04  6.8353e-04  3.8461e-03  0:00:12 1078
   423  2.0664e-01  6.1771e-04  6.6387e-04  3.8756e-03  0:00:10 1077
   424  2.0278e-01  6.0331e-04  6.6376e-04  3.9219e-03  0:00:08 1076
   425  2.0425e-01  6.0887e-04  6.6103e-04  3.9564e-03  0:03:41 1075
   426  2.0431e-01  6.1761e-04  6.5846e-04  4.0267e-03  0:02:57 1074
   427  2.0867e-01  6.0886e-04  6.5743e-04  4.1220e-03  0:02:21 1073
   428  2.0596e-01  6.1230e-04  6.6987e-04  4.1963e-03  0:01:53 1072
   429  2.0616e-01  6.1119e-04  6.5951e-04  4.2873e-03  0:01:30 1071

  iter  continuity  x-velocity  y-velocity         nut     time/iter
   430  2.0528e-01  6.1444e-04  6.7764e-04  4.4001e-03  0:01:12 1070
   431  2.0606e-01  6.2009e-04  6.8277e-04  4.5325e-03  0:00:58 1069
   432  2.0530e-01  6.3152e-04  6.9429e-04  4.6312e-03  0:00:46 1068
   433  2.0577e-01  6.3609e-04  6.9323e-04  4.7171e-03  0:00:37 1067
   434  2.0431e-01  6.3285e-04  6.9855e-04  4.7398e-03  0:00:29 1066
   435  2.0897e-01  6.4056e-04  7.0244e-04  4.7172e-03  0:00:24 1065
   436  2.1108e-01  6.3581e-04  7.0391e-04  4.6829e-03  0:00:19 1064
   437  2.2212e-01  6.7644e-04  7.4914e-04  4.6220e-03  0:00:15 1063
   438  2.2259e-01  6.7296e-04  7.4693e-04  4.5662e-03  0:00:12 1062
   439  2.2441e-01  6.6487e-04  7.2939e-04  4.4687e-03  0:03:42 1061
   440  2.2130e-01  6.5989e-04  7.3587e-04  4.3281e-03  0:02:57 1060

  iter  continuity  x-velocity  y-velocity         nut     time/iter
   441  2.2222e-01  6.5865e-04  7.3298e-04  4.1720e-03  0:02:22 1059
   442  2.2222e-01  6.6332e-04  7.4625e-04  4.0443e-03  0:01:53 1058
   443  2.2036e-01  6.6332e-04  7.4253e-04  3.9090e-03  0:01:31 1057
   444  2.1825e-01  6.6580e-04  7.5115e-04  3.7650e-03  0:01:12 1056
   445  2.1652e-01  6.5687e-04  7.3146e-04  3.6141e-03  0:00:58 1055
   446  2.1401e-01  6.4668e-04  7.2756e-04  3.5048e-03  0:00:46 1054
   447  2.1592e-01  6.5487e-04  7.4363e-04  3.4363e-03  0:00:37 1053
   448  2.1812e-01  6.6080e-04  7.5712e-04  3.3901e-03  0:00:30 1052
   449  2.1955e-01  6.5905e-04  7.4655e-04  3.3864e-03  0:00:24 1051
   450  2.2025e-01  6.5755e-04  7.6070e-04  3.4165e-03  0:00:19 1050
   451  2.2297e-01  6.5316e-04  7.5415e-04  3.4298e-03  0:00:15 1049

  iter  continuity  x-velocity  y-velocity         nut     time/iter
   452  2.2361e-01  6.5110e-04  7.4945e-04  3.4720e-03  0:00:12 1048
   453  2.2450e-01  6.4233e-04  7.4849e-04  3.5324e-03  0:00:10 1047
   454  2.2148e-01  6.4653e-04  7.5715e-04  3.5857e-03  0:00:08 1046
   455  2.1860e-01  6.3581e-04  7.3944e-04  3.6187e-03  0:00:06 1045
   456  2.1340e-01  6.1108e-04  7.2728e-04  3.6059e-03  0:00:05 1044
   457  2.1448e-01  6.1579e-04  7.3531e-04  3.5926e-03  0:00:04 1043
   458  2.1418e-01  6.2056e-04  7.3930e-04  3.5261e-03  0:00:03 1042
   459  2.1207e-01  6.1405e-04  7.2996e-04  3.4406e-03  0:03:31 1041
   460  2.0957e-01  6.0865e-04  7.2944e-04  3.3335e-03  0:02:48 1040
   461  2.1020e-01  5.9041e-04  7.0580e-04  3.1792e-03  0:02:15 1039
   462  2.1194e-01  5.8465e-04  7.1179e-04  3.0026e-03  0:01:48 1038

  iter  continuity  x-velocity  y-velocity         nut     time/iter
   463  2.1245e-01  5.7928e-04  7.0747e-04  2.8585e-03  0:01:26 1037
   464  2.1279e-01  5.7779e-04  7.1047e-04  2.7186e-03  0:01:09 1036
   465  2.1236e-01  5.7265e-04  6.9532e-04  2.6031e-03  0:00:55 1035
   466  2.0958e-01  5.6427e-04  6.9524e-04  2.4954e-03  0:00:44 1034
   467  2.1054e-01  5.5677e-04  6.8597e-04  2.4066e-03  0:00:35 1033
   468  2.0890e-01  5.5324e-04  6.8754e-04  2.3458e-03  0:00:28 1032
   469  2.0407e-01  5.3512e-04  6.6899e-04  2.2809e-03  0:00:22 1031
   470  2.0239e-01  5.3685e-04  6.7371e-04  2.2153e-03  0:00:18 1030
   471  2.0163e-01  5.3504e-04  6.6076e-04  2.1686e-03  0:00:14 1029
   472  2.0002e-01  5.2634e-04  6.5891e-04  2.1320e-03  0:00:11 1028
   473  2.0179e-01  5.2727e-04  6.5748e-04  2.0894e-03  0:00:09 1027

  iter  continuity  x-velocity  y-velocity         nut     time/iter
   474  2.0152e-01  5.2404e-04  6.6180e-04  2.0466e-03  0:00:07 1026
   475  2.0058e-01  5.1985e-04  6.4778e-04  2.0073e-03  0:00:06 1025
   476  1.9671e-01  5.2436e-04  6.5410e-04  1.9671e-03  0:03:29 1024
   477  1.9516e-01  5.1102e-04  6.2439e-04  1.9394e-03  0:02:47 1023
   478  1.9074e-01  4.9796e-04  6.1137e-04  1.8977e-03  0:02:14 1022
   479  1.9003e-01  4.8645e-04  6.0347e-04  1.8645e-03  0:01:47 1021
   480  1.8963e-01  4.8234e-04  6.0623e-04  1.8165e-03  0:01:25 1020
   481  1.8988e-01  4.7492e-04  5.8333e-04  1.7820e-03  0:01:08 1019
   482  1.8881e-01  4.6597e-04  5.8588e-04  1.7571e-03  0:00:55 1018
   483  1.9229e-01  4.7020e-04  5.7872e-04  1.7231e-03  0:00:44 1017
   484  1.8984e-01  4.6395e-04  5.6663e-04  1.6865e-03  0:00:35 1016

  iter  continuity  x-velocity  y-velocity         nut     time/iter
   485  1.9049e-01  4.5350e-04  5.5599e-04  1.6554e-03  0:00:28 1015
   486  1.8621e-01  4.5247e-04  5.5964e-04  1.6183e-03  0:00:22 1014
   487  1.8475e-01  4.4538e-04  5.3944e-04  1.5796e-03  0:00:18 1013
   488  1.8121e-01  4.3578e-04  5.4239e-04  1.5439e-03  0:00:14 1012
   489  1.7842e-01  4.3158e-04  5.3400e-04  1.5096e-03  0:00:11 1011
   490  1.7815e-01  4.2878e-04  5.2451e-04  1.4789e-03  0:00:09 1010
   491  1.7956e-01  4.2366e-04  5.1903e-04  1.4490e-03  0:00:07 1009
   492  1.7763e-01  4.2522e-04  5.2398e-04  1.4259e-03  0:00:06 1008
   493  1.7773e-01  4.1978e-04  5.0701e-04  1.4052e-03  0:00:05 1007
   494  1.7822e-01  4.1532e-04  5.0968e-04  1.3846e-03  0:00:04 1006
   495  1.7794e-01  4.1564e-04  5.1206e-04  1.3725e-03  0:03:24 1005

  iter  continuity  x-velocity  y-velocity         nut     time/iter
   496  1.7763e-01  4.1806e-04  5.1207e-04  1.3762e-03  0:02:43 1004
   497  1.7631e-01  4.1963e-04  5.0248e-04  1.3940e-03  0:02:10 1003
   498  1.7258e-01  4.2075e-04  5.0679e-04  1.4243e-03  0:01:44 1002
   499  1.7192e-01  4.0930e-04  4.9206e-04  1.4608e-03  0:01:23 1001
   500  1.7423e-01  4.1047e-04  4.9852e-04  1.4883e-03  0:01:07 1000
   501  1.7510e-01  4.0819e-04  4.9938e-04  1.5267e-03  0:00:53  999
   502  1.7460e-01  4.1607e-04  5.0630e-04  1.5694e-03  0:00:42  998
   503  1.7543e-01  4.1815e-04  4.9676e-04  1.6138e-03  0:00:34  997
   504  1.7464e-01  4.1872e-04  5.0517e-04  1.6543e-03  0:00:27  996
   505  1.7578e-01  4.1486e-04  5.0004e-04  1.7135e-03  0:00:22  995
   506  1.7487e-01  4.1367e-04  5.0782e-04  1.7640e-03  0:00:17  994

  iter  continuity  x-velocity  y-velocity         nut     time/iter
   507  1.7480e-01  4.1536e-04  5.0191e-04  1.8210e-03  0:00:14  993
   508  1.7422e-01  4.2017e-04  5.1662e-04  1.8675e-03  0:03:29  992
   509  1.7808e-01  4.1985e-04  5.0376e-04  1.8984e-03  0:02:47  991
   510  1.7917e-01  4.2190e-04  5.0676e-04  1.9232e-03  0:02:14  990
   511  1.8367e-01  4.2513e-04  5.1887e-04  1.9323e-03  0:01:47  989
   512  1.8175e-01  4.3217e-04  5.2704e-04  1.9146e-03  0:01:25  988
   513  1.7761e-01  4.2980e-04  5.1403e-04  1.8818e-03  0:01:08  987
   514  1.7482e-01  4.2260e-04  5.1932e-04  1.8332e-03  0:00:55  986
   515  1.7616e-01  4.2915e-04  5.1567e-04  1.7643e-03  0:00:44  985
   516  1.7380e-01  4.2679e-04  5.0723e-04  1.6899e-03  0:00:35  984
   517  1.7626e-01  4.2932e-04  5.1524e-04  1.5928e-03  0:00:28  983

  iter  continuity  x-velocity  y-velocity         nut     time/iter
   518  1.7505e-01  4.2902e-04  5.2246e-04  1.4901e-03  0:00:22  982
   519  1.7565e-01  4.2232e-04  5.0731e-04  1.3798e-03  0:00:18  981
   520  1.7460e-01  4.1926e-04  5.1640e-04  1.2796e-03  0:00:14  980
   521  1.7464e-01  4.1925e-04  5.1325e-04  1.1964e-03  0:00:11  979
   522  1.7528e-01  4.2573e-04  5.1067e-04  1.1182e-03  0:00:09  978
   523  1.7748e-01  4.2068e-04  5.0964e-04  1.0479e-03  0:00:07  977
   524  1.7688e-01  4.2839e-04  5.2274e-04  9.8701e-04  0:00:06  976
   525  1.8068e-01  4.2590e-04  5.1983e-04  9.3873e-04  0:00:05  975
   526  1.8091e-01  4.2115e-04  5.3070e-04  8.9925e-04  0:00:04  974
   527  1.8118e-01  4.2760e-04  5.3987e-04  8.8139e-04  0:03:18  973
   528  1.8271e-01  4.4032e-04  5.4964e-04  8.8398e-04  0:02:38  972

  iter  continuity  x-velocity  y-velocity         nut     time/iter
   529  1.8376e-01  4.4216e-04  5.5143e-04  8.9546e-04  0:02:06  971
   530  1.8120e-01  4.5109e-04  5.6353e-04  9.1217e-04  0:01:41  970
   531  1.8214e-01  4.5137e-04  5.6092e-04  9.3315e-04  0:01:21  969
   532  1.8512e-01  4.5570e-04  5.7099e-04  9.4026e-04  0:01:04  968
   533  1.8788e-01  4.6543e-04  5.8547e-04  9.6699e-04  0:00:51  967
   534  1.8968e-01  4.7883e-04  6.0185e-04  9.8292e-04  0:00:41  966
   535  1.9289e-01  4.9854e-04  6.1302e-04  9.9387e-04  0:00:33  965
   536  1.9392e-01  5.1194e-04  6.3065e-04  1.0266e-03  0:00:26  964
   537  1.9789e-01  5.1693e-04  6.3004e-04  1.0763e-03  0:00:21  963
   538  1.9894e-01  5.1917e-04  6.3522e-04  1.1106e-03  0:00:17  962
   539  1.9875e-01  5.0323e-04  6.2020e-04  1.1569e-03  0:00:13  961

  iter  continuity  x-velocity  y-velocity         nut     time/iter
   540  1.9702e-01  4.9685e-04  6.2145e-04  1.1822e-03  0:00:11  960
   541  1.9554e-01  4.9058e-04  6.0923e-04  1.2051e-03  0:00:09  959
   542  1.9395e-01  4.8889e-04  6.1083e-04  1.2226e-03  0:00:07  958
   543  1.9304e-01  4.8676e-04  6.1091e-04  1.2275e-03  0:00:05  957
   544  1.9044e-01  4.9001e-04  6.1677e-04  1.2147e-03  0:03:16  956
   545  1.8929e-01  4.8641e-04  5.9989e-04  1.2003e-03  0:02:36  955
   546  1.8904e-01  4.8405e-04  6.0844e-04  1.1751e-03  0:02:05  954
   547  1.9061e-01  4.8189e-04  5.9946e-04  1.1495e-03  0:01:40  953
   548  1.9175e-01  4.8330e-04  5.9438e-04  1.1263e-03  0:01:20  952
   549  1.9558e-01  4.7743e-04  5.9418e-04  1.1074e-03  0:01:04  951
   550  1.9210e-01  4.8421e-04  6.0056e-04  1.0902e-03  0:00:51  950

  iter  continuity  x-velocity  y-velocity         nut     time/iter
   551  1.8876e-01  4.7423e-04  5.8351e-04  1.0826e-03  0:00:41  949
   552  1.8739e-01  4.7220e-04  5.8863e-04  1.0963e-03  0:00:33  948
   553  1.8697e-01  4.6832e-04  5.8356e-04  1.0985e-03  0:00:26  947
   554  1.8469e-01  4.6812e-04  5.7522e-04  1.1115e-03  0:00:21  946
   555  1.8289e-01  4.6387e-04  5.6702e-04  1.1370e-03  0:00:17  945
   556  1.8363e-01  4.7998e-04  5.8167e-04  1.1447e-03  0:00:13  944
   557  1.8581e-01  4.6520e-04  5.6181e-04  1.1707e-03  0:00:11  943
   558  1.8924e-01  4.7323e-04  5.7636e-04  1.2023e-03  0:00:08  942
   559  1.9366e-01  4.6321e-04  5.7720e-04  1.2363e-03  0:00:07  941
   560  1.8845e-01  4.7007e-04  5.8297e-04  1.3025e-03  0:00:05  940
   561  1.8753e-01  4.7081e-04  5.6382e-04  1.3641e-03  0:00:04  939

  iter  continuity  x-velocity  y-velocity         nut     time/iter
   562  1.8430e-01  4.6011e-04  5.5874e-04  1.4513e-03  0:03:11  938
   563  1.8430e-01  4.5740e-04  5.5361e-04  1.5141e-03  0:02:33  937
   564  1.8472e-01  4.5819e-04  5.5861e-04  1.5700e-03  0:02:02  936
   565  1.8423e-01  4.5520e-04  5.5520e-04  1.6080e-03  0:01:38  935
   566  1.8244e-01  4.5990e-04  5.6194e-04  1.6360e-03  0:01:18  934
   567  1.8255e-01  4.5785e-04  5.5296e-04  1.6446e-03  0:01:02  933
   568  1.8273e-01  4.5676e-04  5.5440e-04  1.6353e-03  0:00:50  932
   569  1.8604e-01  4.5477e-04  5.5841e-04  1.6439e-03  0:00:40  931
   570  1.8673e-01  4.7479e-04  5.7795e-04  1.6587e-03  0:00:32  930
   571  1.8832e-01  4.5597e-04  5.5849e-04  1.6651e-03  0:00:25  929
   572  1.8568e-01  4.5958e-04  5.6829e-04  1.6770e-03  0:00:20  928

  iter  continuity  x-velocity  y-velocity         nut     time/iter
   573  1.8411e-01  4.5379e-04  5.6112e-04  1.6785e-03  0:00:16  927
   574  1.8209e-01  4.5977e-04  5.5912e-04  1.6747e-03  0:00:13  926
   575  1.8339e-01  4.6917e-04  5.7134e-04  1.6741e-03  0:00:10  925
   576  1.8176e-01  4.6516e-04  5.7530e-04  1.6619e-03  0:00:08  924
   577  1.8142e-01  4.5906e-04  5.6332e-04  1.6257e-03  0:00:07  923
   578  1.8292e-01  4.5380e-04  5.6975e-04  1.5585e-03  0:03:10  922
   579  1.8622e-01  4.5330e-04  5.7319e-04  1.4878e-03  0:02:32  921
   580  1.8979e-01  4.7234e-04  5.8336e-04  1.3965e-03  0:02:01  920
   581  1.9637e-01  4.6432e-04  5.8464e-04  1.2861e-03  0:01:37  919
   582  1.9046e-01  4.6201e-04  5.8235e-04  1.1889e-03  0:01:17  918
   583  1.8722e-01  4.7164e-04  5.8432e-04  1.0911e-03  0:01:02  917

  iter  continuity  x-velocity  y-velocity         nut     time/iter
   584  1.8835e-01  4.7058e-04  5.8945e-04  1.0064e-03  0:00:49  916
   585  1.8554e-01  4.6128e-04  5.8772e-04  9.5513e-04  0:00:39  915
   586  1.9018e-01  4.8499e-04  6.0129e-04  9.0438e-04  0:00:32  914
   587  1.8557e-01  4.7736e-04  5.9273e-04  8.7954e-04  0:00:25  913
   588  1.8717e-01  4.7379e-04  5.9447e-04  8.6979e-04  0:00:20  912
   589  1.9017e-01  4.8648e-04  5.9781e-04  8.8451e-04  0:00:16  911
   590  1.9107e-01  4.8539e-04  6.0760e-04  9.0595e-04  0:00:13  910
   591  1.9218e-01  4.8217e-04  6.0195e-04  9.6576e-04  0:00:10  909
   592  1.9251e-01  4.9938e-04  6.2394e-04  1.0318e-03  0:00:08  908
   593  1.9512e-01  4.9604e-04  6.1459e-04  1.1080e-03  0:00:07  907
   594  1.9451e-01  5.0222e-04  6.1911e-04  1.1818e-03  0:03:06  906

  iter  continuity  x-velocity  y-velocity         nut     time/iter
   595  1.9376e-01  5.0859e-04  6.3261e-04  1.2584e-03  0:02:29  905
   596  1.9352e-01  5.2208e-04  6.4531e-04  1.3428e-03  0:01:59  904
   597  1.9968e-01  5.2363e-04  6.3456e-04  1.4147e-03  0:01:35  903
   598  2.0021e-01  5.2977e-04  6.5931e-04  1.4957e-03  0:01:16  902
   599  1.9837e-01  5.2898e-04  6.5624e-04  1.5867e-03  0:01:01  901
   600  2.0479e-01  5.5607e-04  6.6408e-04  1.6694e-03  0:00:49  900
   601  2.0175e-01  5.5098e-04  6.6482e-04  1.7441e-03  0:00:39  899
   602  2.0318e-01  5.5423e-04  6.6764e-04  1.8218e-03  0:00:31  898
   603  2.0118e-01  5.5450e-04  6.6729e-04  1.8835e-03  0:00:25  897
   604  2.0818e-01  5.6387e-04  6.8382e-04  1.9416e-03  0:00:20  896
   605  2.0855e-01  5.7031e-04  6.9232e-04  1.9839e-03  0:00:16  895

  iter  continuity  x-velocity  y-velocity         nut     time/iter
   606  2.0906e-01  5.6090e-04  6.7571e-04  2.0209e-03  0:00:13  894
   607  2.0809e-01  5.7103e-04  6.8228e-04  2.0588e-03  0:00:10  893
   608  2.1187e-01  5.9640e-04  7.1687e-04  2.0665e-03  0:00:08  892
   609  2.1940e-01  5.9040e-04  7.0874e-04  2.0500e-03  0:00:06  891
   610  2.1724e-01  5.9977e-04  7.1940e-04  2.0408e-03  0:00:05  890
   611  2.1437e-01  5.8319e-04  7.0827e-04  2.0196e-03  0:03:02  889
   612  2.0966e-01  6.0015e-04  7.2908e-04  1.9883e-03  0:02:25  888
   613  2.1624e-01  6.0501e-04  7.2601e-04  1.9396e-03  0:01:56  887
   614  2.1350e-01  6.1780e-04  7.4188e-04  1.8824e-03  0:01:33  886
   615  2.1488e-01  6.3813e-04  7.5318e-04  1.8034e-03  0:01:14  885
   616  2.1558e-01  6.2143e-04  7.3654e-04  1.7253e-03  0:00:59  884

  iter  continuity  x-velocity  y-velocity         nut     time/iter
   617  2.1856e-01  6.2487e-04  7.4837e-04  1.6511e-03  0:00:47  883
   618  2.2076e-01  6.3077e-04  7.6984e-04  1.5651e-03  0:00:38  882
   619  2.1801e-01  6.2604e-04  7.5476e-04  1.4836e-03  0:00:30  881
   620  2.2361e-01  6.3086e-04  7.5139e-04  1.4213e-03  0:00:24  880
   621  2.2233e-01  6.3583e-04  7.6718e-04  1.3578e-03  0:00:19  879
   622  2.2177e-01  6.2706e-04  7.5853e-04  1.2971e-03  0:00:15  878
   623  2.2258e-01  6.2628e-04  7.5030e-04  1.2423e-03  0:00:12  877
   624  2.2281e-01  6.3944e-04  7.8449e-04  1.1872e-03  0:00:10  876
   625  2.2822e-01  6.3833e-04  7.7361e-04  1.1499e-03  0:00:08  875
   626  2.2577e-01  6.5617e-04  7.8660e-04  1.1450e-03  0:00:06  874
   627  2.2565e-01  6.4811e-04  7.8111e-04  1.1349e-03  0:00:05  873

  iter  continuity  x-velocity  y-velocity         nut     time/iter
   628  2.2852e-01  6.6228e-04  7.8620e-04  1.1517e-03  0:00:04  872
   629  2.2599e-01  6.5587e-04  7.9287e-04  1.1789e-03  0:00:03  871
   630  2.2685e-01  6.5259e-04  7.8683e-04  1.2016e-03  0:02:57  870
   631  2.3051e-01  6.5597e-04  7.8883e-04  1.2581e-03  0:02:21  869
   632  2.2774e-01  6.6282e-04  7.9762e-04  1.2963e-03  0:01:53  868
   633  2.2705e-01  6.5900e-04  7.8882e-04  1.3449e-03  0:01:30  867
   634  2.2811e-01  6.6463e-04  7.9433e-04  1.4114e-03  0:01:12  866
   635  2.2812e-01  6.6963e-04  8.0600e-04  1.4892e-03  0:00:58  865
   636  2.3004e-01  6.7298e-04  8.0677e-04  1.5793e-03  0:00:46  864
   637  2.2499e-01  6.7023e-04  8.0636e-04  1.6405e-03  0:00:37  863
   638  2.2729e-01  6.8245e-04  8.1010e-04  1.7278e-03  0:00:29  862

  iter  continuity  x-velocity  y-velocity         nut     time/iter
   639  2.2381e-01  6.6460e-04  7.9799e-04  1.7766e-03  0:00:23  861
   640  2.2217e-01  6.6258e-04  7.9185e-04  1.8319e-03  0:00:19  860
   641  2.2390e-01  6.6125e-04  7.9001e-04  1.8981e-03  0:00:15  859
   642  2.2732e-01  6.7617e-04  8.0630e-04  1.9522e-03  0:00:12  858
   643  2.2660e-01  6.7332e-04  8.0648e-04  2.0229e-03  0:00:10  857
   644  2.2490e-01  6.7691e-04  8.1779e-04  2.0795e-03  0:00:08  856
   645  2.2550e-01  6.8133e-04  8.1860e-04  2.1071e-03  0:00:06  855
   646  2.2656e-01  6.9804e-04  8.2322e-04  2.1605e-03  0:00:05  854
   647  2.2488e-01  6.8949e-04  8.2823e-04  2.2172e-03  0:00:04  853
   648  2.2970e-01  7.2174e-04  8.5526e-04  2.2406e-03  0:02:54  852
   649  2.3230e-01  7.1024e-04  8.3600e-04  2.2425e-03  0:02:19  851

  iter  continuity  x-velocity  y-velocity         nut     time/iter
   650  2.3331e-01  7.1351e-04  8.5447e-04  2.2375e-03  0:01:51  850
   651  2.3728e-01  7.1547e-04  8.6460e-04  2.2406e-03  0:01:29  849
   652  2.3768e-01  7.3518e-04  8.7969e-04  2.2306e-03  0:01:11  848
   653  2.4418e-01  7.3538e-04  8.7208e-04  2.2135e-03  0:00:57  847
   654  2.3243e-01  7.3645e-04  8.8676e-04  2.1935e-03  0:00:45  846
   655  2.4377e-01  7.2872e-04  8.6713e-04  2.1695e-03  0:00:36  845
   656  2.3411e-01  7.2929e-04  8.7628e-04  2.1242e-03  0:00:29  844
   657  2.4264e-01  7.2594e-04  8.6786e-04  2.0801e-03  0:00:23  843
   658  2.3422e-01  7.2824e-04  8.8076e-04  2.0741e-03  0:00:18  842
   659  2.4010e-01  7.2565e-04  8.6061e-04  2.0271e-03  0:00:15  841
   660  2.3682e-01  7.2572e-04  8.6364e-04  1.9858e-03  0:00:12  840

  iter  continuity  x-velocity  y-velocity         nut     time/iter
   661  2.4640e-01  7.2658e-04  8.5782e-04  1.9810e-03  0:02:57  839
   662  2.3777e-01  7.2368e-04  8.5726e-04  1.9749e-03  0:02:22  838
   663  2.4108e-01  7.2356e-04  8.4257e-04  1.9602e-03  0:01:53  837
   664  2.3438e-01  7.2046e-04  8.5533e-04  1.9556e-03  0:01:30  836
   665  2.4694e-01  7.2504e-04  8.5007e-04  1.9641e-03  0:01:12  835
   666  2.3851e-01  7.2545e-04  8.5382e-04  1.9912e-03  0:00:58  834
   667  2.4583e-01  7.4221e-04  8.7849e-04  2.0230e-03  0:00:46  833
   668  2.3652e-01  7.3668e-04  8.7203e-04  2.0869e-03  0:00:37  832
   669  2.4547e-01  7.4165e-04  8.4905e-04  2.1577e-03  0:00:29  831
   670  2.3867e-01  7.4251e-04  8.7170e-04  2.2064e-03  0:00:24  830
   671  2.3757e-01  7.5186e-04  8.8403e-04  2.2709e-03  0:00:19  829

  iter  continuity  x-velocity  y-velocity         nut     time/iter
   672  2.4154e-01  7.7357e-04  8.8647e-04  2.3576e-03  0:00:15  828
   673  2.3759e-01  7.9124e-04  9.0055e-04  2.4142e-03  0:00:12  827
   674  2.4172e-01  8.0044e-04  9.1063e-04  2.4732e-03  0:00:10  826
   675  2.4213e-01  8.1143e-04  9.2772e-04  2.5346e-03  0:00:08  825
   676  2.5416e-01  8.3827e-04  9.5488e-04  2.5762e-03  0:00:06  824
   677  2.4538e-01  8.4144e-04  9.7639e-04  2.6473e-03  0:00:05  823
   678  2.5435e-01  8.5793e-04  9.7740e-04  2.7159e-03  0:02:48  822
   679  2.4791e-01  8.6375e-04  9.7889e-04  2.7944e-03  0:02:14  821
   680  2.5206e-01  8.7764e-04  1.0062e-03  2.8230e-03  0:01:47  820
   681  2.5325e-01  9.0058e-04  1.0313e-03  2.8555e-03  0:01:26  819
   682  2.6022e-01  9.1290e-04  1.0373e-03  2.9045e-03  0:01:09  818

  iter  continuity  x-velocity  y-velocity         nut     time/iter
   683  2.6735e-01  9.3622e-04  1.0700e-03  2.9581e-03  0:00:55  817
   684  2.6248e-01  9.3730e-04  1.0824e-03  2.9650e-03  0:00:44  816
   685  2.6238e-01  9.4010e-04  1.0777e-03  2.9762e-03  0:00:35  815
   686  2.6296e-01  9.5044e-04  1.0913e-03  2.9913e-03  0:00:28  814
   687  2.6151e-01  9.4822e-04  1.1033e-03  2.9927e-03  0:00:22  813
   688  2.6698e-01  9.6072e-04  1.1049e-03  2.9593e-03  0:00:18  812
   689  2.6726e-01  9.5994e-04  1.0935e-03  2.9606e-03  0:00:14  811
   690  2.6399e-01  9.6189e-04  1.1143e-03  2.9138e-03  0:00:11  810
   691  2.6426e-01  9.7924e-04  1.1309e-03  2.8701e-03  0:00:09  809
   692  2.6362e-01  9.9029e-04  1.1211e-03  2.8342e-03  0:00:07  808
   693  2.6588e-01  9.8844e-04  1.1258e-03  2.7936e-03  0:00:06  807

  iter  continuity  x-velocity  y-velocity         nut     time/iter
   694  2.7287e-01  1.0048e-03  1.1563e-03  2.7642e-03  0:00:05  806
   695  2.6772e-01  9.8321e-04  1.1214e-03  2.7413e-03  0:00:04  805
   696  2.6197e-01  9.7985e-04  1.1060e-03  2.7393e-03  0:02:44  804
   697  2.5944e-01  9.6803e-04  1.1012e-03  2.7128e-03  0:02:11  803
   698  2.5802e-01  9.6398e-04  1.0959e-03  2.7010e-03  0:01:45  802
   699  2.5181e-01  9.2758e-04  1.0532e-03  2.6563e-03  0:01:24  801
   700  2.5537e-01  9.1987e-04  1.0426e-03  2.6421e-03  0:01:07  800
   701  2.6305e-01  9.1830e-04  1.0223e-03  2.6231e-03  0:00:53  799
   702  2.5583e-01  8.7190e-04  1.0007e-03  2.6105e-03  0:00:43  798
   703  2.5154e-01  8.5341e-04  9.8186e-04  2.6143e-03  0:00:34  797
   704  2.5294e-01  8.4322e-04  9.7290e-04  2.5973e-03  0:00:27  796

  iter  continuity  x-velocity  y-velocity         nut     time/iter
   705  2.4916e-01  8.0370e-04  9.2582e-04  2.5716e-03  0:00:22  795
   706  2.4861e-01  7.8618e-04  9.1085e-04  2.5647e-03  0:00:17  794
   707  2.5140e-01  7.7783e-04  8.9560e-04  2.5426e-03  0:00:14  793
   708  2.4204e-01  7.6664e-04  8.9985e-04  2.5346e-03  0:00:11  792
   709  2.4080e-01  7.6261e-04  8.7910e-04  2.5253e-03  0:00:09  791
   710  2.3752e-01  7.4934e-04  8.7240e-04  2.5595e-03  0:00:07  790
   711  2.3971e-01  7.4133e-04  8.5417e-04  2.5821e-03  0:00:06  789
   712  2.4027e-01  7.5349e-04  8.5621e-04  2.5967e-03  0:00:05  788
   713  2.3518e-01  7.3814e-04  8.4943e-04  2.6336e-03  0:00:04  787
   714  2.3548e-01  7.3810e-04  8.4758e-04  2.6675e-03  0:02:40  786
   715  2.3227e-01  7.2824e-04  8.2388e-04  2.6841e-03  0:02:08  785

  iter  continuity  x-velocity  y-velocity         nut     time/iter
   716  2.2836e-01  7.1561e-04  8.1821e-04  2.7087e-03  0:01:42  784
   717  2.3057e-01  7.1596e-04  8.1903e-04  2.7460e-03  0:01:22  783
   718  2.2263e-01  7.1856e-04  8.2128e-04  2.8070e-03  0:01:05  782
   719  2.2288e-01  7.2077e-04  8.1402e-04  2.8636e-03  0:00:52  781
   720  2.2057e-01  7.1239e-04  8.0650e-04  2.9084e-03  0:00:42  780
   721  2.2177e-01  6.9885e-04  7.8364e-04  2.9712e-03  0:00:33  779
   722  2.2201e-01  6.8670e-04  7.7501e-04  3.0639e-03  0:00:27  778
   723  2.1562e-01  6.8303e-04  7.8301e-04  3.1414e-03  0:00:21  777
   724  2.1494e-01  6.8655e-04  7.6838e-04  3.2338e-03  0:00:17  776
   725  2.1611e-01  6.7517e-04  7.4868e-04  3.3503e-03  0:00:14  775
   726  2.1287e-01  6.7614e-04  7.5670e-04  3.4286e-03  0:00:11  774

  iter  continuity  x-velocity  y-velocity         nut     time/iter
   727  2.1066e-01  6.7523e-04  7.4633e-04  3.4846e-03  0:00:09  773
   728  2.0798e-01  6.6512e-04  7.3324e-04  3.5039e-03  0:02:41  772
   729  2.0979e-01  6.6433e-04  7.3201e-04  3.5560e-03  0:02:09  771
   730  2.0878e-01  6.6869e-04  7.4046e-04  3.6176e-03  0:01:43  770
   731  2.0865e-01  6.6753e-04  7.3194e-04  3.7423e-03  0:01:22  769
   732  2.0511e-01  6.6168e-04  7.2614e-04  3.8262e-03  0:01:06  768
   733  2.0961e-01  6.6515e-04  7.2989e-04  3.8928e-03  0:00:53  767
   734  2.0280e-01  6.6494e-04  7.3160e-04  3.9475e-03  0:00:42  766
   735  2.0907e-01  6.5673e-04  7.1726e-04  3.9903e-03  0:00:34  765
   736  2.0215e-01  6.5437e-04  7.2568e-04  4.0187e-03  0:00:27  764
   737  2.1115e-01  6.4180e-04  7.1550e-04  4.0403e-03  0:00:21  763

  iter  continuity  x-velocity  y-velocity         nut     time/iter
   738  1.9911e-01  6.3253e-04  6.9810e-04  3.9792e-03  0:00:17  762
   739  2.1110e-01  6.3682e-04  7.0987e-04  3.8982e-03  0:00:14  761
   740  1.9800e-01  6.2395e-04  6.9673e-04  3.8203e-03  0:00:11  760
   741  2.0864e-01  6.2531e-04  6.9524e-04  3.7708e-03  0:00:09  759
   742  1.9856e-01  6.0956e-04  6.8772e-04  3.6677e-03  0:02:39  758
   743  2.0115e-01  6.0227e-04  6.8313e-04  3.5376e-03  0:02:07  757
   744  1.9706e-01  6.0382e-04  6.8044e-04  3.4164e-03  0:01:41  756
   745  1.9839e-01  5.7961e-04  6.4946e-04  3.3155e-03  0:01:21  755
   746  2.0351e-01  5.8883e-04  6.6962e-04  3.2196e-03  0:01:05  754
   747  2.0630e-01  5.8495e-04  6.6084e-04  3.1376e-03  0:00:52  753
   748  2.0379e-01  5.7428e-04  6.5999e-04  3.0819e-03  0:00:41  752

  iter  continuity  x-velocity  y-velocity         nut     time/iter
   749  2.0423e-01  5.5784e-04  6.4834e-04  3.0328e-03  0:00:33  751
   750  2.0252e-01  5.5881e-04  6.5055e-04  2.9578e-03  0:00:26  750
   751  1.9980e-01  5.5113e-04  6.3699e-04  2.8813e-03  0:00:21  749
   752  1.9357e-01  5.3350e-04  6.2282e-04  2.8674e-03  0:00:17  748
   753  1.8949e-01  5.2859e-04  6.1904e-04  2.8437e-03  0:00:13  747
   754  1.8669e-01  5.2060e-04  6.1482e-04  2.7989e-03  0:00:11  746
   755  1.8263e-01  5.1266e-04  5.9405e-04  2.7430e-03  0:00:09  745
   756  1.8147e-01  5.0507e-04  5.9884e-04  2.7218e-03  0:00:07  744
   757  1.8182e-01  5.0079e-04  5.8573e-04  2.6666e-03  0:00:05  743
   758  1.8072e-01  4.9910e-04  5.7928e-04  2.6179e-03  0:00:04  742
   759  1.8106e-01  4.9324e-04  5.7509e-04  2.5661e-03  0:00:03  741

  iter  continuity  x-velocity  y-velocity         nut     time/iter
   760  1.7933e-01  4.9106e-04  5.8057e-04  2.5242e-03  0:02:31  740
   761  1.8057e-01  4.8285e-04  5.6315e-04  2.5065e-03  0:02:00  739
   762  1.7886e-01  4.7174e-04  5.6478e-04  2.5086e-03  0:01:36  738
   763  1.8005e-01  4.6366e-04  5.5325e-04  2.4681e-03  0:01:17  737
   764  1.7698e-01  4.6252e-04  5.4735e-04  2.4251e-03  0:01:01  736
   765  1.7689e-01  4.5762e-04  5.3565e-04  2.3806e-03  0:00:49  735
   766  1.7357e-01  4.5331e-04  5.4083e-04  2.3376e-03  0:00:39  734
   767  1.7453e-01  4.4883e-04  5.2667e-04  2.2882e-03  0:00:31  733
   768  1.7034e-01  4.3686e-04  5.2716e-04  2.2279e-03  0:00:25  732
   769  1.7147e-01  4.3310e-04  5.1485e-04  2.1663e-03  0:00:20  731
   770  1.6945e-01  4.2530e-04  5.0876e-04  2.0972e-03  0:00:16  730

  iter  continuity  x-velocity  y-velocity         nut     time/iter
   771  1.6914e-01  4.2417e-04  4.9791e-04  2.0492e-03  0:00:13  729
   772  1.6943e-01  4.1239e-04  4.9437e-04  2.0296e-03  0:00:10  728
   773  1.7099e-01  4.0921e-04  4.8267e-04  2.0141e-03  0:00:08  727
   774  1.7054e-01  3.9493e-04  4.6862e-04  2.0153e-03  0:00:07  726
   775  1.6585e-01  3.9220e-04  4.6789e-04  2.0481e-03  0:00:05  725
   776  1.6612e-01  3.8607e-04  4.5807e-04  2.0860e-03  0:00:04  724
   777  1.6347e-01  3.7523e-04  4.4341e-04  2.1383e-03  0:00:03  723
   778  1.6092e-01  3.6321e-04  4.3008e-04  2.1749e-03  0:02:27  722
   779  1.6000e-01  3.5344e-04  4.1972e-04  2.1987e-03  0:01:57  721
   780  1.5577e-01  3.4671e-04  4.2426e-04  2.2354e-03  0:01:34  720
   781  1.5876e-01  3.4257e-04  4.0623e-04  2.2644e-03  0:01:15  719

  iter  continuity  x-velocity  y-velocity         nut     time/iter
   782  1.5702e-01  3.3434e-04  4.1032e-04  2.2959e-03  0:01:00  718
   783  1.5629e-01  3.3210e-04  4.0183e-04  2.3125e-03  0:00:48  717
   784  1.5388e-01  3.3016e-04  3.9752e-04  2.3209e-03  0:00:38  716
   785  1.5241e-01  3.2714e-04  3.9189e-04  2.2905e-03  0:00:31  715
   786  1.4839e-01  3.2339e-04  3.9304e-04  2.2641e-03  0:00:24  714
   787  1.4753e-01  3.1843e-04  3.7918e-04  2.2132e-03  0:00:19  713
   788  1.4802e-01  3.1038e-04  3.8242e-04  2.1420e-03  0:00:16  712
   789  1.4842e-01  3.0594e-04  3.7769e-04  2.0482e-03  0:00:12  711
   790  1.4903e-01  3.0436e-04  3.7963e-04  1.9504e-03  0:00:10  710
   791  1.5100e-01  3.0580e-04  3.6848e-04  1.8476e-03  0:00:08  709
   792  1.4951e-01  2.9782e-04  3.6977e-04  1.7687e-03  0:00:06  708

  iter  continuity  x-velocity  y-velocity         nut     time/iter
   793  1.5342e-01  2.9919e-04  3.6432e-04  1.6572e-03  0:00:05  707
   794  1.5101e-01  2.9490e-04  3.6711e-04  1.5521e-03  0:00:04  706
   795  1.5108e-01  2.9507e-04  3.6883e-04  1.4643e-03  0:02:24  705
   796  1.4561e-01  2.9124e-04  3.6642e-04  1.3748e-03  0:01:55  704
   797  1.4257e-01  2.8868e-04  3.5276e-04  1.2973e-03  0:01:32  703
   798  1.3929e-01  2.8118e-04  3.5132e-04  1.2213e-03  0:01:14  702
   799  1.3922e-01  2.7766e-04  3.4614e-04  1.1668e-03  0:00:59  701
   800  1.3779e-01  2.7598e-04  3.5113e-04  1.1229e-03  0:00:47  700
   801  1.3599e-01  2.7507e-04  3.3909e-04  1.0859e-03  0:00:37  699
   802  1.3655e-01  2.7168e-04  3.4872e-04  1.0750e-03  0:00:30  698
   803  1.3987e-01  2.7103e-04  3.4190e-04  1.0552e-03  0:00:24  697

  iter  continuity  x-velocity  y-velocity         nut     time/iter
   804  1.4083e-01  2.7072e-04  3.4122e-04  1.0520e-03  0:00:19  696
   805  1.4373e-01  2.6674e-04  3.4077e-04  1.0656e-03  0:00:15  695
   806  1.4307e-01  2.6716e-04  3.4963e-04  1.0754e-03  0:02:31  694
   807  1.4596e-01  2.6236e-04  3.3780e-04  1.0998e-03  0:02:01  693
   808  1.4384e-01  2.5490e-04  3.4294e-04  1.1321e-03  0:01:36  692
   809  1.4528e-01  2.5635e-04  3.4137e-04  1.1670e-03  0:01:17  691
   810  1.4423e-01  2.5829e-04  3.4372e-04  1.2005e-03  0:01:01  690
   811  1.4768e-01  2.5674e-04  3.4254e-04  1.2323e-03  0:00:49  689
   812  1.4178e-01  2.5596e-04  3.4447e-04  1.2492e-03  0:00:39  688
   813  1.3851e-01  2.5147e-04  3.3142e-04  1.2799e-03  0:00:31  687
   814  1.3826e-01  2.5071e-04  3.3708e-04  1.2905e-03  0:00:25  686

  iter  continuity  x-velocity  y-velocity         nut     time/iter
   815  1.3582e-01  2.5124e-04  3.3741e-04  1.2944e-03  0:00:20  685
   816  1.3548e-01  2.4849e-04  3.3565e-04  1.2975e-03  0:00:16  684
   817  1.3335e-01  2.4735e-04  3.1971e-04  1.2994e-03  0:00:13  683
   818  1.3308e-01  2.4213e-04  3.2423e-04  1.2919e-03  0:00:10  682
   819  1.3473e-01  2.4495e-04  3.2011e-04  1.2788e-03  0:00:08  681
   820  1.3592e-01  2.4142e-04  3.2338e-04  1.2654e-03  0:00:07  680
   821  1.3399e-01  2.4101e-04  3.1960e-04  1.2525e-03  0:00:05  679
   822  1.3536e-01  2.4170e-04  3.2599e-04  1.2381e-03  0:00:04  678
   823  1.3369e-01  2.4142e-04  3.1541e-04  1.2215e-03  0:00:03  677
   824  1.3285e-01  2.3727e-04  3.1559e-04  1.1982e-03  0:02:18  676
   825  1.3124e-01  2.3744e-04  3.1455e-04  1.1854e-03  0:01:50  675

  iter  continuity  x-velocity  y-velocity         nut     time/iter
   826  1.3384e-01  2.3671e-04  3.2167e-04  1.1747e-03  0:01:28  674
   827  1.3373e-01  2.3724e-04  3.0984e-04  1.1636e-03  0:01:10  673
   828  1.3408e-01  2.3208e-04  3.1834e-04  1.1550e-03  0:00:56  672
   829  1.3325e-01  2.3363e-04  3.1397e-04  1.1549e-03  0:00:45  671
   830  1.3464e-01  2.3328e-04  3.0745e-04  1.1537e-03  0:00:36  670
   831  1.3569e-01  2.2963e-04  3.0745e-04  1.1579e-03  0:00:29  669
   832  1.3293e-01  2.3622e-04  3.2063e-04  1.1634e-03  0:00:23  668
   833  1.3333e-01  2.3289e-04  3.0823e-04  1.1736e-03  0:00:18  667
   834  1.3072e-01  2.2977e-04  3.1520e-04  1.1877e-03  0:00:15  666
   835  1.3101e-01  2.3481e-04  3.1371e-04  1.1998e-03  0:00:12  665
   836  1.3025e-01  2.3798e-04  3.1561e-04  1.2193e-03  0:00:09  664

  iter  continuity  x-velocity  y-velocity         nut     time/iter
   837  1.2978e-01  2.3863e-04  3.1459e-04  1.2303e-03  0:00:07  663
   838  1.2728e-01  2.3926e-04  3.2229e-04  1.2448e-03  0:00:06  662
   839  1.2547e-01  2.3549e-04  3.1049e-04  1.2600e-03  0:00:05  661
   840  1.2815e-01  2.3603e-04  3.1975e-04  1.2720e-03  0:00:04  660
   841  1.2877e-01  2.3517e-04  3.1643e-04  1.2763e-03  0:00:03  659
   842  1.3021e-01  2.3831e-04  3.2056e-04  1.2754e-03  0:02:14  658
   843  1.2895e-01  2.3613e-04  3.0366e-04  1.2748e-03  0:01:47  657
   844  1.2838e-01  2.2568e-04  3.0069e-04  1.2719e-03  0:01:26  656
   845  1.2374e-01  2.1708e-04  2.8736e-04  1.2621e-03  0:01:08  655
   846  1.2428e-01  2.1629e-04  2.9478e-04  1.2408e-03  0:00:55  654
   847  1.2256e-01  2.1065e-04  2.8457e-04  1.2237e-03  0:00:44  653

  iter  continuity  x-velocity  y-velocity         nut     time/iter
   848  1.2259e-01  2.1572e-04  2.9636e-04  1.2027e-03  0:00:35  652
   849  1.2296e-01  2.1231e-04  2.8325e-04  1.1828e-03  0:00:28  651
   850  1.2173e-01  2.1534e-04  2.8989e-04  1.1607e-03  0:00:22  650
   851  1.2520e-01  2.1504e-04  2.9056e-04  1.1440e-03  0:00:18  649
   852  1.2472e-01  2.2085e-04  3.0416e-04  1.1275e-03  0:00:14  648
   853  1.2820e-01  2.2401e-04  2.9632e-04  1.1123e-03  0:00:11  647
   854  1.2954e-01  2.2605e-04  3.0600e-04  1.0928e-03  0:00:09  646
   855  1.2686e-01  2.2568e-04  3.0092e-04  1.0769e-03  0:00:07  645
   856  1.2878e-01  2.3263e-04  2.9910e-04  1.0431e-03  0:00:06  644
   857  1.2790e-01  2.3533e-04  3.0953e-04  1.0232e-03  0:00:05  643
   858  1.2781e-01  2.4663e-04  3.2499e-04  9.9907e-04  0:00:04  642

  iter  continuity  x-velocity  y-velocity         nut     time/iter
   859  1.2914e-01  2.4602e-04  3.1324e-04  9.6861e-04  0:02:11  641
   860  1.3553e-01  2.4915e-04  3.3294e-04  9.5155e-04  0:01:45  640
   861  1.4027e-01  2.6518e-04  3.4878e-04  9.3103e-04  0:01:24  639
   862  1.4405e-01  2.8010e-04  3.5798e-04  9.2576e-04  0:01:07  638
   863  1.4856e-01  2.9132e-04  3.6691e-04  9.3395e-04  0:00:53  637
   864  1.4934e-01  3.0430e-04  3.8804e-04  9.4044e-04  0:00:43  636
   865  1.5454e-01  3.1254e-04  3.8750e-04  9.4175e-04  0:00:34  635
   866  1.5835e-01  3.1579e-04  4.0458e-04  9.4437e-04  0:00:27  634
   867  1.5953e-01  3.2588e-04  4.1592e-04  9.5639e-04  0:00:22  633
   868  1.6138e-01  3.3987e-04  4.3086e-04  9.7924e-04  0:00:17  632
   869  1.6362e-01  3.5239e-04  4.2949e-04  9.9859e-04  0:00:14  631

  iter  continuity  x-velocity  y-velocity         nut     time/iter
   870  1.6069e-01  3.5618e-04  4.4103e-04  1.0216e-03  0:00:11  630
   871  1.6545e-01  3.5892e-04  4.4195e-04  1.0355e-03  0:00:09  629
   872  1.6657e-01  3.6386e-04  4.5252e-04  1.0436e-03  0:00:07  628
   873  1.7599e-01  3.7294e-04  4.6351e-04  1.0453e-03  0:00:06  627
   874  1.7797e-01  3.9355e-04  4.9041e-04  1.0647e-03  0:00:05  626
   875  1.7959e-01  4.1146e-04  4.9783e-04  1.0968e-03  0:00:04  625
   876  1.8329e-01  4.2846e-04  5.1762e-04  1.1087e-03  0:02:08  624
   877  1.8893e-01  4.2613e-04  5.2082e-04  1.1244e-03  0:01:42  623
   878  1.9295e-01  4.5132e-04  5.4804e-04  1.1287e-03  0:01:21  622
   879  1.8828e-01  4.3385e-04  5.1935e-04  1.1422e-03  0:01:05  621
   880  1.8572e-01  4.3399e-04  5.2966e-04  1.1498e-03  0:00:52  620

  iter  continuity  x-velocity  y-velocity         nut     time/iter
   881  1.8528e-01  4.3104e-04  5.2507e-04  1.1313e-03  0:00:42  619
   882  1.8562e-01  4.4366e-04  5.2852e-04  1.1270e-03  0:00:33  618
   883  1.8426e-01  4.3180e-04  5.2859e-04  1.1412e-03  0:00:26  617
   884  1.8170e-01  4.3954e-04  5.3344e-04  1.1304e-03  0:00:21  616
   885  1.8186e-01  4.3426e-04  5.2052e-04  1.1495e-03  0:00:17  615
   886  1.8153e-01  4.3774e-04  5.3041e-04  1.1593e-03  0:00:13  614
   887  1.8235e-01  4.3964e-04  5.3347e-04  1.2025e-03  0:00:11  613
   888  1.8027e-01  4.4635e-04  5.3232e-04  1.2513e-03  0:00:09  612
   889  1.8081e-01  4.4733e-04  5.2705e-04  1.2806e-03  0:02:09  611
   890  1.8062e-01  4.5057e-04  5.3507e-04  1.3439e-03  0:01:43  610
   891  1.8511e-01  4.4863e-04  5.2969e-04  1.4054e-03  0:01:22  609

  iter  continuity  x-velocity  y-velocity         nut     time/iter
   892  1.8560e-01  4.5184e-04  5.3652e-04  1.4588e-03  0:01:06  608
   893  1.8772e-01  4.4996e-04  5.4470e-04  1.5078e-03  0:00:53  607
   894  1.8746e-01  4.5817e-04  5.4996e-04  1.5644e-03  0:00:42  606
   895  1.8826e-01  4.5850e-04  5.4250e-04  1.6400e-03  0:00:34  605
   896  1.8532e-01  4.5761e-04  5.4544e-04  1.6948e-03  0:00:27  604
   897  1.8342e-01  4.5821e-04  5.4353e-04  1.7273e-03  0:00:21  603
   898  1.8236e-01  4.6218e-04  5.4967e-04  1.7345e-03  0:00:17  602
   899  1.8097e-01  4.5914e-04  5.4186e-04  1.7270e-03  0:00:14  601
   900  1.8103e-01  4.6338e-04  5.5353e-04  1.7235e-03  0:00:11  600
   901  1.8429e-01  4.6163e-04  5.4616e-04  1.7168e-03  0:00:09  599
   902  1.8346e-01  4.6373e-04  5.4675e-04  1.6886e-03  0:00:07  598

  iter  continuity  x-velocity  y-velocity         nut     time/iter
   903  1.8400e-01  4.6103e-04  5.5010e-04  1.6347e-03  0:00:06  597
   904  1.8171e-01  4.6805e-04  5.5928e-04  1.5697e-03  0:00:04  596
   905  1.8196e-01  4.6429e-04  5.4360e-04  1.4975e-03  0:00:04  595
   906  1.8085e-01  4.6367e-04  5.5559e-04  1.4104e-03  0:02:02  594
   907  1.8110e-01  4.6351e-04  5.5370e-04  1.3125e-03  0:01:37  593
   908  1.8167e-01  4.7089e-04  5.5400e-04  1.2181e-03  0:01:18  592
   909  1.8194e-01  4.6669e-04  5.5218e-04  1.1430e-03  0:01:02  591
   910  1.8120e-01  4.7334e-04  5.6250e-04  1.0498e-03  0:00:49  590
   911  1.8474e-01  4.6751e-04  5.5202e-04  9.7156e-04  0:00:40  589
   912  1.8624e-01  4.6815e-04  5.6128e-04  9.1283e-04  0:00:32  588
   913  1.8870e-01  4.6662e-04  5.6584e-04  8.3147e-04  0:00:25  587

  iter  continuity  x-velocity  y-velocity         nut     time/iter
   914  1.8820e-01  4.7260e-04  5.6804e-04  7.7331e-04  0:00:20  586
   915  1.8949e-01  4.7061e-04  5.5831e-04  7.0753e-04  0:00:16  585
   916  1.8761e-01  4.6875e-04  5.6386e-04  6.6210e-04  0:00:13  584
   917  1.9132e-01  4.6785e-04  5.6548e-04  6.2101e-04  0:00:10  583
   918  1.8891e-01  4.7202e-04  5.6852e-04  5.9149e-04  0:00:08  582
   919  1.8492e-01  4.6529e-04  5.6355e-04  5.7550e-04  0:00:07  581
   920  1.8364e-01  4.7356e-04  5.7301e-04  5.5881e-04  0:00:05  580
   921  1.8483e-01  4.6871e-04  5.6309e-04  5.3670e-04  0:00:04  579
   922  1.8302e-01  4.7159e-04  5.6618e-04  5.1498e-04  0:00:03  578
   923  1.8264e-01  4.6818e-04  5.6638e-04  5.0025e-04  0:00:03  577
   924  1.8322e-01  4.7632e-04  5.7724e-04  4.8621e-04  0:01:57  576

  iter  continuity  x-velocity  y-velocity         nut     time/iter
   925  1.8621e-01  4.7329e-04  5.6672e-04  4.8636e-04  0:01:34  575
   926  1.8548e-01  4.7306e-04  5.7865e-04  4.8378e-04  0:01:15  574
   927  1.8634e-01  4.7243e-04  5.7596e-04  4.7279e-04  0:01:00  573
   928  1.8659e-01  4.7747e-04  5.7606e-04  4.5970e-04  0:00:48  572
   929  1.8710e-01  4.7293e-04  5.7298e-04  4.5217e-04  0:00:38  571
   930  1.8630e-01  4.7926e-04  5.8202e-04  4.3604e-04  0:00:30  570
   931  1.8932e-01  4.7474e-04  5.7441e-04  4.1847e-04  0:00:24  569
   932  1.8901e-01  4.7671e-04  5.8229e-04  4.0331e-04  0:00:19  568
   933  1.8873e-01  4.7425e-04  5.8508e-04  3.8850e-04  0:00:16  567
   934  1.8895e-01  4.8114e-04  5.8850e-04  3.7489e-04  0:00:12  566
   935  1.9094e-01  4.7990e-04  5.7824e-04  3.6370e-04  0:00:10  565

  iter  continuity  x-velocity  y-velocity         nut     time/iter
   936  1.8873e-01  4.7767e-04  5.8238e-04  3.5452e-04  0:00:08  564
   937  1.9145e-01  4.7739e-04  5.8105e-04  3.4349e-04  0:00:06  563
   938  1.9044e-01  4.8202e-04  5.8581e-04  3.3217e-04  0:00:05  562
   939  1.8967e-01  4.7721e-04  5.8264e-04  3.2188e-04  0:00:04  561
   940  1.8875e-01  4.8422e-04  5.9004e-04  3.1112e-04  0:01:55  560
   941  1.8982e-01  4.8053e-04  5.8230e-04  3.0336e-04  0:01:32  559
   942  1.8719e-01  4.8199e-04  5.8279e-04  2.9663e-04  0:01:13  558
   943  1.8748e-01  4.7767e-04  5.8169e-04  2.9345e-04  0:00:59  557
   944  1.8789e-01  4.8440e-04  5.9122e-04  2.9203e-04  0:00:47  556
   945  1.9017e-01  4.8050e-04  5.7929e-04  2.9483e-04  0:00:37  555
   946  1.9088e-01  4.7982e-04  5.8913e-04  2.9927e-04  0:00:30  554

  iter  continuity  x-velocity  y-velocity         nut     time/iter
   947  1.9525e-01  4.8011e-04  5.9100e-04  3.0429e-04  0:00:24  553
   948  1.9617e-01  4.8652e-04  5.9166e-04  3.1210e-04  0:00:19  552
   949  1.9735e-01  4.8350e-04  5.9332e-04  3.2195e-04  0:00:15  551
   950  1.9380e-01  4.8786e-04  5.9945e-04  3.2531e-04  0:00:12  550
   951  1.9268e-01  4.8178e-04  5.9013e-04  3.3230e-04  0:00:10  549
   952  1.9065e-01  4.8277e-04  5.9450e-04  3.3710e-04  0:01:57  548
   953  1.8805e-01  4.7959e-04  5.9378e-04  3.4140e-04  0:01:34  547
   954  1.8831e-01  4.8512e-04  5.9616e-04  3.4866e-04  0:01:15  546
   955  1.8965e-01  4.8328e-04  5.8449e-04  3.5464e-04  0:01:00  545
   956  1.8778e-01  4.8075e-04  5.8908e-04  3.6186e-04  0:00:48  544
   957  1.8765e-01  4.7910e-04  5.8210e-04  3.7264e-04  0:00:38  543

  iter  continuity  x-velocity  y-velocity         nut     time/iter
   958  1.8689e-01  4.8023e-04  5.8733e-04  3.7461e-04  0:00:30  542
   959  1.8694e-01  4.7671e-04  5.8146e-04  3.7654e-04  0:00:24  541
   960  1.8550e-01  4.7926e-04  5.8835e-04  3.7892e-04  0:00:19  540
   961  1.8636e-01  4.7497e-04  5.7901e-04  3.8131e-04  0:00:15  539
   962  1.8520e-01  4.7657e-04  5.7948e-04  3.7960e-04  0:00:12  538
   963  1.8620e-01  4.7480e-04  5.8017e-04  3.7721e-04  0:00:10  537
   964  1.8523e-01  4.8304e-04  5.8981e-04  3.9462e-04  0:00:08  536
   965  1.9009e-01  4.9785e-04  5.9591e-04  3.8849e-04  0:00:06  535
   966  1.9102e-01  5.0401e-04  6.1101e-04  3.8141e-04  0:00:05  534
   967  1.9429e-01  5.0551e-04  6.1379e-04  3.7935e-04  0:00:04  533
   968  1.9050e-01  4.8856e-04  5.8854e-04  3.6018e-04  0:00:03  532

  iter  continuity  x-velocity  y-velocity         nut     time/iter
   969  1.8920e-01  4.7791e-04  5.7744e-04  3.4741e-04  0:01:49  531
   970  1.8624e-01  4.7877e-04  5.8402e-04  3.3891e-04  0:01:27  530
   971  1.8672e-01  4.7323e-04  5.7576e-04  3.3210e-04  0:01:09  529
   972  1.8539e-01  4.7400e-04  5.8067e-04  3.2284e-04  0:00:55  528
   973  1.8335e-01  4.7275e-04  5.8218e-04  3.1293e-04  0:00:44  527
   974  1.8429e-01  4.7717e-04  5.8742e-04  3.0367e-04  0:00:35  526
   975  1.8669e-01  4.7797e-04  5.7517e-04  2.9577e-04  0:00:28  525
   976  1.8667e-01  4.7466e-04  5.8092e-04  2.9737e-04  0:00:23  524
   977  1.9545e-01  4.9215e-04  6.0283e-04  2.8869e-04  0:00:18  523
   978  1.9015e-01  4.8254e-04  5.8860e-04  2.7677e-04  0:00:14  522
   979  1.8633e-01  4.7500e-04  5.7836e-04  2.6816e-04  0:00:11  521

  iter  continuity  x-velocity  y-velocity         nut     time/iter
   980  1.8426e-01  4.7987e-04  5.8726e-04  2.7697e-04  0:00:09  520
   981  1.9054e-01  5.0048e-04  6.0652e-04  2.6626e-04  0:00:07  519
   982  1.8604e-01  4.9803e-04  5.9929e-04  2.5601e-04  0:00:06  518
   983  1.8561e-01  4.9111e-04  5.9555e-04  2.5066e-04  0:00:05  517
   984  1.8370e-01  4.8761e-04  5.9284e-04  2.4716e-04  0:00:04  516
   985  1.8552e-01  4.8455e-04  5.8161e-04  2.5119e-04  0:00:03  515
   986  1.8720e-01  4.7786e-04  5.8818e-04  2.4904e-04  0:00:02  514
   987  1.9020e-01  4.8427e-04  5.9407e-04  2.4639e-04  0:01:44  513
   988  1.9042e-01  4.9149e-04  5.9811e-04  2.4833e-04  0:01:23  512
   989  1.9042e-01  4.9237e-04  5.9674e-04  2.5119e-04  0:01:07  511
   990  1.8875e-01  4.9535e-04  6.0666e-04  2.5936e-04  0:00:53  510

  iter  continuity  x-velocity  y-velocity         nut     time/iter
   991  1.8996e-01  4.8491e-04  5.8954e-04  2.6125e-04  0:00:42  509
   992  1.8949e-01  4.8693e-04  5.9987e-04  2.6501e-04  0:00:34  508
   993  1.9093e-01  4.8875e-04  6.0414e-04  2.6796e-04  0:00:27  507
   994  1.8890e-01  4.8832e-04  6.0131e-04  2.7080e-04  0:00:22  506
   995  1.8798e-01  4.8960e-04  5.9021e-04  2.7061e-04  0:00:17  505
   996  1.8822e-01  4.8262e-04  5.9033e-04  2.6886e-04  0:00:14  504
   997  1.9001e-01  4.8645e-04  5.9161e-04  2.7043e-04  0:00:11  503
   998  1.9283e-01  4.8935e-04  6.0015e-04  2.7186e-04  0:00:09  502
   999  1.9798e-01  4.9514e-04  6.0707e-04  2.8954e-04  0:00:07  501
  1000  1.9830e-01  5.1239e-04  6.3029e-04  2.8543e-04  0:00:06  500
  1001  1.8720e-01  4.8875e-04  5.9939e-04  2.9174e-04  0:00:04  499

  iter  continuity  x-velocity  y-velocity         nut     time/iter
  1002  1.8770e-01  5.0472e-04  6.1062e-04  2.9902e-04  0:01:43  498
  1003  1.9027e-01  5.0135e-04  6.1174e-04  3.1100e-04  0:01:22  497
  1004  1.8593e-01  4.8600e-04  5.9456e-04  3.1774e-04  0:01:06  496
  1005  1.8828e-01  4.7846e-04  5.7899e-04  3.2787e-04  0:00:53  495
  1006  1.8863e-01  4.8552e-04  6.0111e-04  3.3704e-04  0:00:42  494
  1007  1.8764e-01  4.8424e-04  6.0051e-04  3.4390e-04  0:00:33  493
  1008  1.9165e-01  4.8765e-04  5.9554e-04  3.4706e-04  0:00:27  492
  1009  1.8867e-01  4.8912e-04  5.9488e-04  3.5661e-04  0:00:21  491
  1010  1.8567e-01  4.7900e-04  5.8644e-04  3.5816e-04  0:00:17  490
  1011  1.8626e-01  4.6704e-04  5.7264e-04  3.6208e-04  0:00:14  489
[...]
  1266  2.4771e-01  8.5150e-04  9.7901e-04  2.7331e-03  0:00:09  234
  1267  2.5536e-01  8.5165e-04  9.8367e-04  2.8277e-03  0:00:07  233
  1268  2.5675e-01  8.6002e-04  9.9222e-04  2.8834e-03  0:00:06  232
  1269  2.5527e-01  8.6364e-04  9.9249e-04  2.9281e-03  0:00:05  231
  1270  2.5593e-01  8.6895e-04  1.0053e-03  2.9915e-03  0:00:04  230
  1271  2.5395e-01  8.7410e-04  1.0083e-03  3.0667e-03  0:00:03  229
  1272  2.5892e-01  8.8646e-04  1.0304e-03  3.1217e-03  0:00:02  228
  1273  2.6291e-01  8.8537e-04  1.0206e-03  3.1681e-03  0:00:47  227
  1274  2.6263e-01  8.8630e-04  1.0128e-03  3.2065e-03  0:00:38  226
  1275  2.6288e-01  8.9708e-04  1.0274e-03  3.3178e-03  0:00:30  225
  1276  2.6386e-01  8.9117e-04  1.0260e-03  3.3298e-03  0:00:24  224

  iter  continuity  x-velocity  y-velocity         nut     time/iter
  1277  2.5854e-01  8.7552e-04  1.0072e-03  3.3543e-03  0:00:19  223
  1278  2.5783e-01  8.6431e-04  1.0016e-03  3.3886e-03  0:00:15  222
  1279  2.6207e-01  8.6581e-04  1.0005e-03  3.4056e-03  0:00:12  221
  1280  2.5739e-01  8.5990e-04  9.9351e-04  3.3265e-03  0:00:10  220
  1281  2.5456e-01  8.4936e-04  9.8087e-04  3.2776e-03  0:00:08  219
  1282  2.5297e-01  8.4713e-04  9.8838e-04  3.1642e-03  0:00:06  218
  1283  2.5682e-01  8.4947e-04  9.8554e-04  3.0442e-03  0:00:05  217
  1284  2.5797e-01  8.4749e-04  9.8526e-04  2.9508e-03  0:00:04  216
  1285  2.5318e-01  8.7062e-04  1.0088e-03  2.8656e-03  0:00:03  215
  1286  2.5002e-01  8.8197e-04  1.0192e-03  2.7980e-03  0:00:02  214
  1287  2.5442e-01  8.9378e-04  1.0118e-03  2.7643e-03  0:00:02  213

  iter  continuity  x-velocity  y-velocity         nut     time/iter
  1288  2.5450e-01  8.9170e-04  1.0216e-03  2.7195e-03  0:00:02  212
  1289  2.5507e-01  8.9150e-04  1.0192e-03  2.6789e-03  0:00:01  211
  1290  2.5512e-01  8.8928e-04  1.0192e-03  2.6534e-03  0:00:43  210
  1291  2.5954e-01  8.8392e-04  1.0124e-03  2.6844e-03  0:00:34  209
  1292  2.5936e-01  8.9526e-04  1.0362e-03  2.6712e-03  0:00:27  208
  1293  2.6135e-01  8.7693e-04  1.0142e-03  2.6429e-03  0:00:22  207
  1294  2.5981e-01  8.8088e-04  1.0162e-03  2.6485e-03  0:00:17  206
  1295  2.6240e-01  8.8329e-04  1.0296e-03  2.6728e-03  0:00:14  205
  1296  2.6107e-01  8.8881e-04  1.0326e-03  2.6350e-03  0:00:11  204
  1297  2.6295e-01  8.8352e-04  1.0199e-03  2.6696e-03  0:00:09  203
  1298  2.6296e-01  8.9021e-04  1.0345e-03  2.7302e-03  0:00:07  202

  iter  continuity  x-velocity  y-velocity         nut     time/iter
  1299  2.5844e-01  8.9487e-04  1.0522e-03  2.8045e-03  0:00:06  201
  1300  2.6709e-01  9.2220e-04  1.0476e-03  2.8261e-03  0:00:04  200
  1301  2.5233e-01  9.0180e-04  1.0346e-03  2.8737e-03  0:00:03  199
  1302  2.6080e-01  9.2035e-04  1.0530e-03  2.9317e-03  0:00:03  198
  1303  2.5657e-01  9.1595e-04  1.0450e-03  2.9359e-03  0:00:02  197
  1304  2.7288e-01  9.3977e-04  1.0764e-03  2.9494e-03  0:00:02  196
  1305  2.5444e-01  9.0443e-04  1.0528e-03  2.9650e-03  0:00:01  195
  1306  2.6827e-01  9.0959e-04  1.0457e-03  2.9523e-03  0:00:01  194
  1307  2.5202e-01  8.9675e-04  1.0325e-03  3.0250e-03  0:00:01  193
  1308  2.6454e-01  9.1052e-04  1.0433e-03  3.0101e-03  0:00:39  192
  1309  2.4760e-01  9.0524e-04  1.0529e-03  3.0722e-03  0:00:31  191

  iter  continuity  x-velocity  y-velocity         nut     time/iter
  1310  2.6458e-01  9.2227e-04  1.0463e-03  3.0926e-03  0:00:25  190
  1311  2.5450e-01  9.0591e-04  1.0124e-03  3.0519e-03  0:00:20  189
  1312  2.4798e-01  9.0250e-04  1.0351e-03  3.0134e-03  0:00:16  188
  1313  2.6143e-01  9.0320e-04  1.0079e-03  3.0153e-03  0:00:12  187
  1314  2.4447e-01  9.1033e-04  1.0201e-03  3.0029e-03  0:00:10  186
  1315  2.5379e-01  8.9079e-04  1.0062e-03  2.9776e-03  0:00:08  185
  1316  2.5055e-01  9.0408e-04  1.0229e-03  2.9285e-03  0:00:06  184
  1317  2.5462e-01  8.9617e-04  1.0124e-03  2.8719e-03  0:00:05  183
  1318  2.5314e-01  8.8066e-04  1.0179e-03  2.7860e-03  0:00:04  182
  1319  2.5878e-01  8.9382e-04  1.0322e-03  2.7391e-03  0:00:03  181
  1320  2.5565e-01  9.0473e-04  1.0476e-03  2.6386e-03  0:00:03  180

  iter  continuity  x-velocity  y-velocity         nut     time/iter
  1321  2.5869e-01  9.1768e-04  1.0709e-03  2.5811e-03  0:00:02  179
  1322  2.6202e-01  9.2795e-04  1.0909e-03  2.5137e-03  0:00:02  178
  1323  2.6513e-01  9.3975e-04  1.0984e-03  2.4776e-03  0:00:01  177
  1324  2.6688e-01  9.2125e-04  1.0847e-03  2.4482e-03  0:00:36  176
  1325  2.7040e-01  9.2228e-04  1.0956e-03  2.3743e-03  0:00:29  175
  1326  2.6226e-01  9.2861e-04  1.1033e-03  2.3444e-03  0:00:23  174
  1327  2.6583e-01  9.6885e-04  1.1384e-03  2.3105e-03  0:00:18  173
  1328  2.6408e-01  9.3119e-04  1.1044e-03  2.2878e-03  0:00:14  172
  1329  2.5953e-01  9.2812e-04  1.0978e-03  2.2552e-03  0:00:12  171
  1330  2.5577e-01  9.2400e-04  1.0970e-03  2.2291e-03  0:00:09  170
  1331  2.5449e-01  9.2740e-04  1.0951e-03  2.2088e-03  0:00:07  169

  iter  continuity  x-velocity  y-velocity         nut     time/iter
  1332  2.5641e-01  9.1435e-04  1.0862e-03  2.1818e-03  0:00:06  168
  1333  2.5587e-01  9.1412e-04  1.0731e-03  2.1969e-03  0:00:05  167
  1334  2.5399e-01  9.0187e-04  1.0666e-03  2.2149e-03  0:00:04  166
  1335  2.5565e-01  8.9416e-04  1.0626e-03  2.2419e-03  0:00:03  165
  1336  2.5680e-01  8.9287e-04  1.0608e-03  2.2912e-03  0:00:35  164
  1337  2.5783e-01  8.8150e-04  1.0475e-03  2.3541e-03  0:00:28  163
  1338  2.5733e-01  8.7811e-04  1.0541e-03  2.3981e-03  0:00:22  162
  1339  2.5771e-01  8.6742e-04  1.0451e-03  2.4731e-03  0:00:18  161
  1340  2.5578e-01  8.6888e-04  1.0378e-03  2.5863e-03  0:00:14  160
  1341  2.5402e-01  8.5866e-04  1.0249e-03  2.7121e-03  0:00:11  159
  1342  2.4990e-01  8.5716e-04  1.0260e-03  2.8121e-03  0:00:09  158

  iter  continuity  x-velocity  y-velocity         nut     time/iter
  1343  2.4971e-01  8.4944e-04  1.0064e-03  2.8454e-03  0:00:07  157
  1344  2.4896e-01  8.4051e-04  1.0057e-03  2.9135e-03  0:00:06  156
  1345  2.5023e-01  8.3676e-04  9.9999e-04  2.9576e-03  0:00:04  155
  1346  2.4920e-01  8.5532e-04  1.0126e-03  3.0129e-03  0:00:04  154
  1347  2.4744e-01  8.5421e-04  9.9748e-04  3.0195e-03  0:00:03  153
  1348  2.4758e-01  8.3357e-04  9.7804e-04  3.0530e-03  0:00:02  152
  1349  2.4889e-01  8.3557e-04  9.7538e-04  3.1152e-03  0:00:02  151
  1350  2.4441e-01  8.3745e-04  9.8141e-04  3.1240e-03  0:00:01  150
  1351  2.4806e-01  8.2730e-04  9.6727e-04  3.1080e-03  0:00:01  149
  1352  2.4516e-01  8.4734e-04  9.8825e-04  3.1534e-03  0:00:01  148
  1353  2.4546e-01  8.4663e-04  9.6408e-04  3.1732e-03  0:00:30  147

  iter  continuity  x-velocity  y-velocity         nut     time/iter
  1354  2.4843e-01  8.2903e-04  9.7021e-04  3.1710e-03  0:00:24  146
  1355  2.4733e-01  8.1384e-04  9.5046e-04  3.1945e-03  0:00:19  145
  1356  2.4481e-01  8.2022e-04  9.6480e-04  3.1818e-03  0:00:15  144
  1357  2.4515e-01  8.3426e-04  9.6456e-04  3.1649e-03  0:00:12  143
  1358  2.4555e-01  8.2972e-04  9.6883e-04  3.1495e-03  0:00:10  142
  1359  2.4635e-01  8.3224e-04  9.5862e-04  3.1470e-03  0:00:08  141
  1360  2.4659e-01  8.2532e-04  9.4619e-04  3.1246e-03  0:00:06  140
  1361  2.4563e-01  8.1922e-04  9.4150e-04  3.1107e-03  0:00:05  139
  1362  2.4184e-01  8.1595e-04  9.4210e-04  3.1247e-03  0:00:04  138
  1363  2.4212e-01  8.1424e-04  9.3467e-04  3.1694e-03  0:00:03  137
  1364  2.3974e-01  7.8263e-04  9.1580e-04  3.1676e-03  0:00:02  136

  iter  continuity  x-velocity  y-velocity         nut     time/iter
  1365  2.4112e-01  7.7500e-04  9.0401e-04  3.1799e-03  0:00:02  135
  1366  2.4139e-01  7.6676e-04  8.9739e-04  3.2140e-03  0:00:02  134
  1367  2.4279e-01  7.6168e-04  8.8332e-04  3.2867e-03  0:00:01  133
  1368  2.3904e-01  7.5980e-04  8.9142e-04  3.3179e-03  0:00:01  132
  1369  2.3651e-01  7.4620e-04  8.6725e-04  3.3968e-03  0:00:01  131
  1370  2.3609e-01  7.3372e-04  8.6012e-04  3.4564e-03  0:00:27  130
  1371  2.3428e-01  7.2068e-04  8.4354e-04  3.5192e-03  0:00:21  129
  1372  2.2643e-01  7.0601e-04  8.2556e-04  3.5972e-03  0:00:17  128
  1373  2.2518e-01  7.0321e-04  8.0795e-04  3.6716e-03  0:00:13  127
  1374  2.2221e-01  6.8733e-04  8.0212e-04  3.7352e-03  0:00:11  126
  1375  2.2243e-01  6.8524e-04  7.8989e-04  3.7985e-03  0:00:08  125

  iter  continuity  x-velocity  y-velocity         nut     time/iter
  1376  2.1610e-01  6.6557e-04  7.6771e-04  3.7957e-03  0:00:07  124
  1377  2.1391e-01  6.5128e-04  7.4492e-04  3.8007e-03  0:00:05  123
  1378  2.1156e-01  6.3819e-04  7.4068e-04  3.7854e-03  0:00:04  122
  1379  2.1100e-01  6.2172e-04  7.1283e-04  3.7898e-03  0:00:03  121
  1380  2.0676e-01  5.9059e-04  6.8495e-04  3.7530e-03  0:00:03  120
  1381  2.0541e-01  5.7638e-04  6.6334e-04  3.6701e-03  0:00:02  119
  1382  2.0172e-01  5.6051e-04  6.5365e-04  3.5694e-03  0:00:02  118
  1383  1.9798e-01  5.5071e-04  6.2209e-04  3.4472e-03  0:00:01  117
  1384  1.9536e-01  5.4205e-04  6.2357e-04  3.2807e-03  0:00:01  116
  1385  1.9130e-01  5.3767e-04  6.0937e-04  3.1232e-03  0:00:01  115
  1386  1.8943e-01  5.2957e-04  5.9927e-04  2.9742e-03  0:00:01  114

  iter  continuity  x-velocity  y-velocity         nut     time/iter
  1387  1.8919e-01  5.2544e-04  5.9516e-04  2.7928e-03  0:00:23  113
  1388  1.8480e-01  5.1857e-04  5.9936e-04  2.6206e-03  0:00:18  112
  1389  1.8446e-01  5.1397e-04  5.8780e-04  2.5022e-03  0:00:15  111
  1390  1.8527e-01  5.0705e-04  5.9179e-04  2.3762e-03  0:00:12  110
  1391  1.8437e-01  5.0919e-04  5.8875e-04  2.2419e-03  0:00:09  109
  1392  1.8505e-01  5.0844e-04  5.8227e-04  2.1518e-03  0:00:07  108
  1393  1.8707e-01  5.1022e-04  5.8084e-04  2.0665e-03  0:00:06  107
  1394  1.8499e-01  5.1362e-04  5.8823e-04  1.9833e-03  0:00:05  106
  1395  1.8492e-01  5.0948e-04  5.7746e-04  1.9288e-03  0:00:04  105
  1396  1.8497e-01  5.0533e-04  5.8098e-04  1.8855e-03  0:00:03  104
  1397  1.8468e-01  5.0688e-04  5.8230e-04  1.8641e-03  0:00:02  103

  iter  continuity  x-velocity  y-velocity         nut     time/iter
  1398  1.8587e-01  5.1343e-04  5.8407e-04  1.8613e-03  0:00:22  102
  1399  1.8503e-01  5.1012e-04  5.6872e-04  1.8767e-03  0:00:18  101
  1400  1.8229e-01  5.1279e-04  5.7792e-04  1.8928e-03  0:00:14  100
  1401  1.8401e-01  5.0872e-04  5.6879e-04  1.9357e-03  0:00:11   99
  1402  1.8700e-01  5.2082e-04  5.8616e-04  2.0011e-03  0:00:09   98
  1403  1.8874e-01  5.1465e-04  5.7928e-04  2.0978e-03  0:00:07   97
  1404  1.9030e-01  5.2035e-04  5.8982e-04  2.2285e-03  0:00:05   96
  1405  1.9382e-01  5.2194e-04  5.8470e-04  2.3847e-03  0:00:04   95
  1406  1.9527e-01  5.2754e-04  5.9225e-04  2.5013e-03  0:00:03   94
  1407  1.9834e-01  5.2965e-04  6.0621e-04  2.6050e-03  0:00:21   93
  1408  1.9656e-01  5.3739e-04  6.1762e-04  2.7233e-03  0:00:17   92

  iter  continuity  x-velocity  y-velocity         nut     time/iter
  1409  2.0101e-01  5.5046e-04  6.1964e-04  2.8374e-03  0:00:13   91
  1410  1.9802e-01  5.5795e-04  6.3974e-04  2.9374e-03  0:00:11   90
  1411  2.0084e-01  5.7182e-04  6.4569e-04  3.0203e-03  0:00:08   89
  1412  2.0523e-01  5.8893e-04  6.5557e-04  3.0645e-03  0:00:07   88
  1413  2.0997e-01  5.9664e-04  6.6381e-04  3.1294e-03  0:00:05   87
  1414  2.0790e-01  6.0427e-04  6.7357e-04  3.1529e-03  0:00:04   86
  1415  2.0535e-01  5.8387e-04  6.4510e-04  3.1956e-03  0:00:03   85
  1416  2.0395e-01  5.8273e-04  6.5683e-04  3.1820e-03  0:00:03   84
  1417  2.0564e-01  5.8847e-04  6.5453e-04  3.1818e-03  0:00:02   83
  1418  2.0429e-01  5.9080e-04  6.5341e-04  3.1547e-03  0:00:02   82
  1419  2.0722e-01  5.8770e-04  6.4699e-04  3.1209e-03  0:00:01   81

  iter  continuity  x-velocity  y-velocity         nut     time/iter
  1420  2.0481e-01  5.8800e-04  6.5366e-04  3.0904e-03  0:00:01   80
  1421  2.0725e-01  5.8175e-04  6.4157e-04  3.0530e-03  0:00:17   79
  1422  2.0822e-01  5.7972e-04  6.4738e-04  3.0061e-03  0:00:13   78
  1423  2.0903e-01  5.7884e-04  6.4784e-04  2.9829e-03  0:00:10   77
  1424  2.0793e-01  5.8286e-04  6.5042e-04  2.9855e-03  0:00:08   76
  1425  2.0956e-01  5.8448e-04  6.3967e-04  2.9863e-03  0:00:06   75
  1426  2.0835e-01  5.8252e-04  6.4338e-04  3.0000e-03  0:00:05   74
  1427  2.1075e-01  5.8241e-04  6.4028e-04  3.0253e-03  0:00:04   73
  1428  2.0792e-01  5.7547e-04  6.4181e-04  3.0588e-03  0:00:03   72
  1429  2.0570e-01  5.6693e-04  6.3711e-04  3.1335e-03  0:00:03   71
  1430  2.0422e-01  5.6886e-04  6.3813e-04  3.2127e-03  0:00:02   70

  iter  continuity  x-velocity  y-velocity         nut     time/iter
  1431  2.0024e-01  5.5442e-04  6.2324e-04  3.2878e-03  0:00:02   69
  1432  1.9955e-01  5.5528e-04  6.2361e-04  3.3295e-03  0:00:01   68
  1433  2.0406e-01  5.4809e-04  6.2725e-04  3.3186e-03  0:00:01   67
  1434  2.0257e-01  5.6495e-04  6.4512e-04  3.2770e-03  0:00:01   66
  1435  2.0157e-01  5.6948e-04  6.4147e-04  3.2188e-03  0:00:14   65
  1436  2.0522e-01  5.7982e-04  6.5880e-04  3.1154e-03  0:00:11   64
  1437  2.0143e-01  5.7578e-04  6.5000e-04  3.0051e-03  0:00:08   63
  1438  2.0084e-01  5.6809e-04  6.4102e-04  2.8628e-03  0:00:07   62
  1439  2.0044e-01  5.5580e-04  6.3224e-04  2.7064e-03  0:00:05   61
  1440  1.9964e-01  5.6312e-04  6.4371e-04  2.5510e-03  0:00:04   60
  1441  2.0188e-01  5.5738e-04  6.3030e-04  2.4237e-03  0:00:03   59

  iter  continuity  x-velocity  y-velocity         nut     time/iter
  1442  2.0392e-01  5.7549e-04  6.5534e-04  2.3225e-03  0:00:03   58
  1443  2.0672e-01  5.6726e-04  6.4689e-04  2.2797e-03  0:00:02   57
  1444  2.0732e-01  5.8108e-04  6.5598e-04  2.2462e-03  0:00:02   56
  1445  2.0876e-01  5.7747e-04  6.4680e-04  2.2353e-03  0:00:01   55
  1446  2.1042e-01  5.8854e-04  6.6403e-04  2.2343e-03  0:00:01   54
  1447  2.0813e-01  5.7806e-04  6.5022e-04  2.2383e-03  0:00:01   53
  1448  2.0648e-01  5.8824e-04  6.6381e-04  2.2307e-03  0:00:01   52
  1449  2.0748e-01  5.7487e-04  6.5253e-04  2.2258e-03  0:00:00   51
  1450  2.0488e-01  5.8514e-04  6.6323e-04  2.2247e-03  0:00:10   50
  1451  2.0374e-01  5.7790e-04  6.5476e-04  2.1892e-03  0:00:08   49
  1452  2.0582e-01  5.8359e-04  6.5998e-04  2.1525e-03  0:00:06   48

  iter  continuity  x-velocity  y-velocity         nut     time/iter
  1453  2.0928e-01  5.8230e-04  6.6281e-04  2.0891e-03  0:00:05   47
  1454  2.0983e-01  5.9754e-04  6.7951e-04  2.0165e-03  0:00:04   46
  1455  2.1229e-01  5.7915e-04  6.5291e-04  1.9514e-03  0:00:03   45
  1456  2.1186e-01  5.8166e-04  6.6622e-04  1.8819e-03  0:00:02   44
  1457  2.1321e-01  5.6926e-04  6.6034e-04  1.8264e-03  0:00:02   43
  1458  2.1338e-01  5.7197e-04  6.5732e-04  1.7333e-03  0:00:01   42
  1459  2.1272e-01  5.7444e-04  6.6339e-04  1.6574e-03  0:00:01   41
  1460  2.0665e-01  5.7316e-04  6.5961e-04  1.5567e-03  0:00:01   40
  1461  2.0691e-01  5.5818e-04  6.4080e-04  1.4671e-03  0:00:01   39
  1462  2.0721e-01  5.5739e-04  6.5000e-04  1.3674e-03  0:00:01   38
  1463  2.0790e-01  5.5019e-04  6.5309e-04  1.2694e-03  0:00:00   37

  iter  continuity  x-velocity  y-velocity         nut     time/iter
  1464  2.0886e-01  5.6118e-04  6.5620e-04  1.1716e-03  0:00:08   36
  1465  2.0611e-01  5.5583e-04  6.4268e-04  1.0975e-03  0:00:06   35
  1466  2.0272e-01  5.5621e-04  6.4962e-04  1.0229e-03  0:00:05   34
  1467  2.0252e-01  5.4658e-04  6.3645e-04  9.8275e-04  0:00:04   33
  1468  1.9924e-01  5.5099e-04  6.4354e-04  9.2928e-04  0:00:03   32
  1469  1.9721e-01  5.4719e-04  6.4200e-04  8.9879e-04  0:00:02   31
  1470  1.9856e-01  5.5505e-04  6.5063e-04  8.9499e-04  0:00:02   30
  1471  1.9895e-01  5.4707e-04  6.4052e-04  9.0103e-04  0:00:01   29
  1472  1.9878e-01  5.4946e-04  6.4351e-04  8.9070e-04  0:00:01   28
  1473  2.0369e-01  5.4538e-04  6.4285e-04  8.7773e-04  0:00:01   27
  1474  2.0652e-01  5.7178e-04  6.7418e-04  8.7752e-04  0:00:01   26

  iter  continuity  x-velocity  y-velocity         nut     time/iter
  1475  2.0640e-01  5.6828e-04  6.6453e-04  8.6474e-04  0:00:00   25
  1476  2.0517e-01  5.5462e-04  6.5611e-04  8.5971e-04  0:00:05   24
  1477  2.0435e-01  5.4962e-04  6.5228e-04  8.5844e-04  0:00:04   23
  1478  2.0147e-01  5.4970e-04  6.4743e-04  8.8893e-04  0:00:03   22
  1479  2.0407e-01  5.5069e-04  6.4867e-04  8.9223e-04  0:00:02   21
  1480  2.0357e-01  5.7418e-04  6.7583e-04  8.9574e-04  0:00:02   20
  1481  2.0396e-01  5.7519e-04  6.7407e-04  9.0104e-04  0:00:01   19
  1482  2.0104e-01  5.4873e-04  6.4681e-04  9.0542e-04  0:00:01   18
  1483  2.0088e-01  5.2955e-04  6.3340e-04  9.1505e-04  0:00:01   17
  1484  2.0255e-01  5.3271e-04  6.4173e-04  9.1551e-04  0:00:01   16
  1485  2.0777e-01  5.4464e-04  6.4802e-04  9.1739e-04  0:00:00   15

  iter  continuity  x-velocity  y-velocity         nut     time/iter
  1486  2.0027e-01  5.2532e-04  6.3270e-04  9.2626e-04  0:00:00   14
  1487  2.0061e-01  5.1472e-04  6.1728e-04  9.2839e-04  0:00:00   13
  1488  2.0195e-01  5.2177e-04  6.2909e-04  9.3956e-04  0:00:00   12
  1489  2.0175e-01  5.1052e-04  6.1833e-04  9.5066e-04  0:00:00   11
  1490  2.0271e-01  5.1176e-04  6.2289e-04  9.5962e-04  0:00:00   10
  1491  2.0307e-01  5.1361e-04  6.1998e-04  9.6305e-04  0:00:00    9
  1492  2.0502e-01  5.2178e-04  6.2651e-04  9.8666e-04  0:00:00    8
  1493  2.0234e-01  5.1641e-04  6.2113e-04  1.0033e-03  0:00:01    7
  1494  2.0294e-01  5.2133e-04  6.3063e-04  1.0265e-03  0:00:01    6
  1495  2.0601e-01  5.2030e-04  6.2158e-04  1.0446e-03  0:00:01    5
  1496  2.0172e-01  5.1876e-04  6.3369e-04  1.0699e-03  0:00:00    4

  iter  continuity  x-velocity  y-velocity         nut     time/iter
  1497  2.0305e-01  5.1815e-04  6.2708e-04  1.0908e-03  0:00:00    3
  1498  2.0038e-01  5.2358e-04  6.2942e-04  1.1082e-03  0:00:00    2
  1499  2.0062e-01  5.2265e-04  6.2279e-04  1.1097e-03  0:00:00    1
  1500  1.9621e-01  5.2422e-04  6.3008e-04  1.1211e-03  0:00:00    0
Registering ReportDefFiles, ("C:\Users\mmartini\Desktop\Assignment2\GeometryLAST\Bench_files\dp4\FLU\Fluent\.\\report-drag-rfile.out" "C:\Users\mmartini\Desktop\Assignment2\GeometryLAST\Bench_files\dp4\FLU\Fluent\.\\report-lift-rfile.out")
Writing "| gzip -2cf > SolutionMonitor.gz"...
Writing temporary file C:\\Users\\mmartini\\AppData\\Local\\Temp\\flntgz-9882 ...
Done.


number tracked = 34, escaped = 34
Writing data to C:\\Users\\mmartini\\Desktop\\Assignment2\\GeometryLAST\\Bench_files\\dp4\\FLU\\Fluent\\SYS.1.ip ...
	x-coord
	y-coord
	pressure
	x-velocity
	y-velocity
	nut
Done.

Writing to STI-WIN10-ax006:"C:\Users\mmartini\Desktop\Assignment2\GeometryLAST\Bench_files\dp4\FLU\Fluent\SYS.1-6.cas.h5" in NODE0 mode and compression level 1 ...
  Writing mesh ...
        8575 cells,     1 zone  ...
       13564 faces,    11 zones ...
        4988 nodes,     1 zone  ...
  Done.
Done.

Writing to STI-WIN10-ax006:"C:\Users\mmartini\Desktop\Assignment2\GeometryLAST\Bench_files\dp4\FLU\Fluent\SYS.1-6-01500.dat.h5" in NODE0 mode and compression level 1 ...
  Writing results.
Done.

Performance Timer for 1500 iterations on 1 compute node
  Average wall-clock time per iteration:              0.020 sec
  Global reductions per iteration:                       42 ops
  Global reductions time per iteration:               0.000 sec (0.0%)
  Message count per iteration:                            3 messages
  Data transfer per iteration:                        0.000 MB
  LE solves per iteration:                                5 solves
  LE wall-clock time per iteration:                   0.008 sec (41.3%)
  LE global solves per iteration:                         0 solves
  LE global wall-clock time per iteration:            0.000 sec (0.0%)
  LE global matrix maximum size:                         0
  AMG cycles per iteration:                           9.999 cycles
  Relaxation sweeps per iteration:                      146 sweeps
  Relaxation exchanges per iteration:                     0 exchanges
  LE early protections (stall) per iteration:           0.000 times
  LE early protections (divergence) per iteration:      0.000 times
  Total SVARS touched:                              365

  Total wall-clock time:                             30.561 sec

